* NGSPICE file created from S_WARMBOOT.ext - technology: sky130A

* Black-box entry subcircuit for sky130_fd_sc_hd__decap_6 abstract view
.subckt sky130_fd_sc_hd__decap_6 VGND VNB VPB VPWR
.ends

* Black-box entry subcircuit for sky130_fd_sc_hd__decap_3 abstract view
.subckt sky130_fd_sc_hd__decap_3 VGND VNB VPB VPWR
.ends

* Black-box entry subcircuit for sky130_fd_sc_hd__fill_1 abstract view
.subckt sky130_fd_sc_hd__fill_1 VGND VNB VPB VPWR
.ends

* Black-box entry subcircuit for sky130_fd_sc_hd__tapvpwrvgnd_1 abstract view
.subckt sky130_fd_sc_hd__tapvpwrvgnd_1 VGND VPWR
.ends

* Black-box entry subcircuit for sky130_fd_sc_hd__clkbuf_1 abstract view
.subckt sky130_fd_sc_hd__clkbuf_1 A VGND VNB VPB VPWR X
.ends

* Black-box entry subcircuit for sky130_fd_sc_hd__mux2_1 abstract view
.subckt sky130_fd_sc_hd__mux2_1 A0 A1 S VGND VNB VPB VPWR X
.ends

* Black-box entry subcircuit for sky130_fd_sc_hd__decap_8 abstract view
.subckt sky130_fd_sc_hd__decap_8 VGND VNB VPB VPWR
.ends

* Black-box entry subcircuit for sky130_ef_sc_hd__decap_12 abstract view
.subckt sky130_ef_sc_hd__decap_12 VPWR VGND VPB VNB
.ends

* Black-box entry subcircuit for sky130_fd_sc_hd__a221o_1 abstract view
.subckt sky130_fd_sc_hd__a221o_1 A1 A2 B1 B2 C1 VGND VNB VPB VPWR X
.ends

* Black-box entry subcircuit for sky130_fd_sc_hd__buf_1 abstract view
.subckt sky130_fd_sc_hd__buf_1 A VGND VNB VPB VPWR X
.ends

* Black-box entry subcircuit for sky130_fd_sc_hd__clkbuf_2 abstract view
.subckt sky130_fd_sc_hd__clkbuf_2 A VGND VNB VPB VPWR X
.ends

* Black-box entry subcircuit for sky130_fd_sc_hd__diode_2 abstract view
.subckt sky130_fd_sc_hd__diode_2 DIODE VGND VNB VPB VPWR
.ends

* Black-box entry subcircuit for sky130_fd_sc_hd__fill_2 abstract view
.subckt sky130_fd_sc_hd__fill_2 VGND VNB VPB VPWR
.ends

* Black-box entry subcircuit for sky130_fd_sc_hd__buf_2 abstract view
.subckt sky130_fd_sc_hd__buf_2 A VGND VNB VPB VPWR X
.ends

* Black-box entry subcircuit for sky130_fd_sc_hd__decap_4 abstract view
.subckt sky130_fd_sc_hd__decap_4 VGND VNB VPB VPWR
.ends

* Black-box entry subcircuit for sky130_fd_sc_hd__o21ba_1 abstract view
.subckt sky130_fd_sc_hd__o21ba_1 A1 A2 B1_N VGND VNB VPB VPWR X
.ends

* Black-box entry subcircuit for sky130_fd_sc_hd__nand2b_1 abstract view
.subckt sky130_fd_sc_hd__nand2b_1 A_N B VGND VNB VPB VPWR Y
.ends

* Black-box entry subcircuit for sky130_fd_sc_hd__mux4_1 abstract view
.subckt sky130_fd_sc_hd__mux4_1 A0 A1 A2 A3 S0 S1 VGND VNB VPB VPWR X
.ends

* Black-box entry subcircuit for sky130_fd_sc_hd__o21a_1 abstract view
.subckt sky130_fd_sc_hd__o21a_1 A1 A2 B1 VGND VNB VPB VPWR X
.ends

* Black-box entry subcircuit for sky130_fd_sc_hd__conb_1 abstract view
.subckt sky130_fd_sc_hd__conb_1 VGND VNB VPB VPWR HI LO
.ends

* Black-box entry subcircuit for sky130_fd_sc_hd__dlxtp_1 abstract view
.subckt sky130_fd_sc_hd__dlxtp_1 D GATE VGND VNB VPB VPWR Q
.ends

* Black-box entry subcircuit for sky130_fd_sc_hd__dlymetal6s2s_1 abstract view
.subckt sky130_fd_sc_hd__dlymetal6s2s_1 A VGND VNB VPB VPWR X
.ends

* Black-box entry subcircuit for sky130_fd_sc_hd__inv_1 abstract view
.subckt sky130_fd_sc_hd__inv_1 A VGND VNB VPB VPWR Y
.ends

* Black-box entry subcircuit for sky130_fd_sc_hd__inv_2 abstract view
.subckt sky130_fd_sc_hd__inv_2 A VGND VNB VPB VPWR Y
.ends

.subckt S_WARMBOOT BOOT_top Co FrameData[0] FrameData[10] FrameData[11] FrameData[12]
+ FrameData[13] FrameData[14] FrameData[15] FrameData[16] FrameData[17] FrameData[18]
+ FrameData[19] FrameData[1] FrameData[20] FrameData[21] FrameData[22] FrameData[23]
+ FrameData[24] FrameData[25] FrameData[26] FrameData[27] FrameData[28] FrameData[29]
+ FrameData[2] FrameData[30] FrameData[31] FrameData[3] FrameData[4] FrameData[5]
+ FrameData[6] FrameData[7] FrameData[8] FrameData[9] FrameData_O[0] FrameData_O[10]
+ FrameData_O[11] FrameData_O[12] FrameData_O[13] FrameData_O[14] FrameData_O[15]
+ FrameData_O[16] FrameData_O[17] FrameData_O[18] FrameData_O[19] FrameData_O[1] FrameData_O[20]
+ FrameData_O[21] FrameData_O[22] FrameData_O[23] FrameData_O[24] FrameData_O[25]
+ FrameData_O[26] FrameData_O[27] FrameData_O[28] FrameData_O[29] FrameData_O[2] FrameData_O[30]
+ FrameData_O[31] FrameData_O[3] FrameData_O[4] FrameData_O[5] FrameData_O[6] FrameData_O[7]
+ FrameData_O[8] FrameData_O[9] FrameStrobe[0] FrameStrobe[10] FrameStrobe[11] FrameStrobe[12]
+ FrameStrobe[13] FrameStrobe[14] FrameStrobe[15] FrameStrobe[16] FrameStrobe[17]
+ FrameStrobe[18] FrameStrobe[19] FrameStrobe[1] FrameStrobe[2] FrameStrobe[3] FrameStrobe[4]
+ FrameStrobe[5] FrameStrobe[6] FrameStrobe[7] FrameStrobe[8] FrameStrobe[9] FrameStrobe_O[0]
+ FrameStrobe_O[10] FrameStrobe_O[11] FrameStrobe_O[12] FrameStrobe_O[13] FrameStrobe_O[14]
+ FrameStrobe_O[15] FrameStrobe_O[16] FrameStrobe_O[17] FrameStrobe_O[18] FrameStrobe_O[19]
+ FrameStrobe_O[1] FrameStrobe_O[2] FrameStrobe_O[3] FrameStrobe_O[4] FrameStrobe_O[5]
+ FrameStrobe_O[6] FrameStrobe_O[7] FrameStrobe_O[8] FrameStrobe_O[9] N1BEG[0] N1BEG[1]
+ N1BEG[2] N1BEG[3] N2BEG[0] N2BEG[1] N2BEG[2] N2BEG[3] N2BEG[4] N2BEG[5] N2BEG[6]
+ N2BEG[7] N2BEGb[0] N2BEGb[1] N2BEGb[2] N2BEGb[3] N2BEGb[4] N2BEGb[5] N2BEGb[6] N2BEGb[7]
+ N4BEG[0] N4BEG[10] N4BEG[11] N4BEG[12] N4BEG[13] N4BEG[14] N4BEG[15] N4BEG[1] N4BEG[2]
+ N4BEG[3] N4BEG[4] N4BEG[5] N4BEG[6] N4BEG[7] N4BEG[8] N4BEG[9] NN4BEG[0] NN4BEG[10]
+ NN4BEG[11] NN4BEG[12] NN4BEG[13] NN4BEG[14] NN4BEG[15] NN4BEG[1] NN4BEG[2] NN4BEG[3]
+ NN4BEG[4] NN4BEG[5] NN4BEG[6] NN4BEG[7] NN4BEG[8] NN4BEG[9] RESET_top S1END[0] S1END[1]
+ S1END[2] S1END[3] S2END[0] S2END[1] S2END[2] S2END[3] S2END[4] S2END[5] S2END[6]
+ S2END[7] S2MID[0] S2MID[1] S2MID[2] S2MID[3] S2MID[4] S2MID[5] S2MID[6] S2MID[7]
+ S4END[0] S4END[10] S4END[11] S4END[12] S4END[13] S4END[14] S4END[15] S4END[1] S4END[2]
+ S4END[3] S4END[4] S4END[5] S4END[6] S4END[7] S4END[8] S4END[9] SLOT_top0 SLOT_top1
+ SLOT_top2 SLOT_top3 SS4END[0] SS4END[10] SS4END[11] SS4END[12] SS4END[13] SS4END[14]
+ SS4END[15] SS4END[1] SS4END[2] SS4END[3] SS4END[4] SS4END[5] SS4END[6] SS4END[7]
+ SS4END[8] SS4END[9] UserCLK UserCLKo VGND VPWR
XFILLER_9_159 VGND VGND VPWR VPWR sky130_fd_sc_hd__decap_6
XFILLER_3_23 VGND VGND VPWR VPWR sky130_fd_sc_hd__decap_3
XFILLER_10_125 VGND VGND VPWR VPWR sky130_fd_sc_hd__fill_1
XTAP_TAPCELL_ROW_8_88 VGND VPWR sky130_fd_sc_hd__tapvpwrvgnd_1
XPHY_EDGE_ROW_0_Left_12 VGND VGND VPWR VPWR sky130_fd_sc_hd__decap_3
XFILLER_2_357 VGND VGND VPWR VPWR sky130_fd_sc_hd__decap_6
XTAP_TAPCELL_ROW_11_120 VGND VPWR sky130_fd_sc_hd__tapvpwrvgnd_1
X_131_ FrameStrobe[10] VGND VGND VPWR VPWR net90 sky130_fd_sc_hd__clkbuf_1
X_062_ net31 net35 Inst_S_WARMBOOT_ConfigMem.Inst_frame0_bit17.Q VGND VGND VPWR VPWR
+ _028_ sky130_fd_sc_hd__mux2_1
XFILLER_0_57 VGND VGND VPWR VPWR sky130_fd_sc_hd__decap_8
XFILLER_0_13 VGND VGND VPWR VPWR sky130_fd_sc_hd__decap_6
XFILLER_2_121 VPWR VGND VPWR VGND sky130_ef_sc_hd__decap_12
XFILLER_2_165 VPWR VGND VPWR VGND sky130_ef_sc_hd__decap_12
X_045_ _011_ _012_ _013_ Inst_S_WARMBOOT_ConfigMem.Inst_frame0_bit27.Q Inst_S_WARMBOOT_ConfigMem.Inst_frame0_bit28.Q
+ VGND VGND VPWR VPWR _014_ sky130_fd_sc_hd__a221o_1
XFILLER_7_279 VGND VGND VPWR VPWR sky130_fd_sc_hd__fill_1
X_114_ net15 VGND VGND VPWR VPWR net74 sky130_fd_sc_hd__buf_1
XTAP_TAPCELL_ROW_5_67 VGND VPWR sky130_fd_sc_hd__tapvpwrvgnd_1
Xfanout7 net8 VGND VGND VPWR VPWR net7 sky130_fd_sc_hd__clkbuf_2
XANTENNA_5 FrameData[8] VGND VGND VPWR VPWR sky130_fd_sc_hd__diode_2
XFILLER_9_319 VPWR VGND VPWR VGND sky130_ef_sc_hd__decap_12
XFILLER_1_219 VGND VGND VPWR VPWR sky130_fd_sc_hd__fill_2
Xoutput97 net99 VGND VGND VPWR VPWR FrameStrobe_O[19] sky130_fd_sc_hd__buf_2
Xoutput75 net77 VGND VGND VPWR VPWR FrameData_O[28] sky130_fd_sc_hd__buf_2
Xoutput64 net66 VGND VGND VPWR VPWR FrameData_O[18] sky130_fd_sc_hd__buf_2
XFILLER_8_396 VGND VGND VPWR VPWR sky130_fd_sc_hd__decap_4
XFILLER_8_363 VGND VGND VPWR VPWR sky130_fd_sc_hd__fill_1
Xoutput86 net88 VGND VGND VPWR VPWR FrameData_O[9] sky130_fd_sc_hd__buf_2
XTAP_TAPCELL_ROW_2_46 VGND VPWR sky130_fd_sc_hd__tapvpwrvgnd_1
XFILLER_10_307 VGND VGND VPWR VPWR sky130_fd_sc_hd__fill_1
XFILLER_9_149 VGND VGND VPWR VPWR sky130_fd_sc_hd__fill_1
XFILLER_5_355 VPWR VGND VPWR VGND sky130_ef_sc_hd__decap_12
XFILLER_5_344 VGND VGND VPWR VPWR sky130_fd_sc_hd__decap_4
XFILLER_3_57 VPWR VGND VPWR VGND sky130_ef_sc_hd__decap_12
XFILLER_10_148 VGND VGND VPWR VPWR sky130_fd_sc_hd__fill_2
XFILLER_10_115 VGND VGND VPWR VPWR sky130_fd_sc_hd__fill_2
XTAP_TAPCELL_ROW_11_121 VGND VPWR sky130_fd_sc_hd__tapvpwrvgnd_1
XTAP_TAPCELL_ROW_11_110 VGND VPWR sky130_fd_sc_hd__tapvpwrvgnd_1
XTAP_TAPCELL_ROW_8_89 VGND VPWR sky130_fd_sc_hd__tapvpwrvgnd_1
X_130_ FrameStrobe[9] VGND VGND VPWR VPWR net108 sky130_fd_sc_hd__clkbuf_1
XFILLER_9_12 VPWR VGND VPWR VGND sky130_ef_sc_hd__decap_12
XFILLER_2_133 VGND VGND VPWR VPWR sky130_fd_sc_hd__decap_6
XFILLER_2_177 VPWR VGND VPWR VGND sky130_ef_sc_hd__decap_12
X_061_ net27 Inst_S_WARMBOOT_ConfigMem.Inst_frame0_bit17.Q Inst_S_WARMBOOT_ConfigMem.Inst_frame0_bit18.Q
+ VGND VGND VPWR VPWR _027_ sky130_fd_sc_hd__o21ba_1
X_044_ net30 net34 Inst_S_WARMBOOT_ConfigMem.Inst_frame0_bit26.Q VGND VGND VPWR VPWR
+ _013_ sky130_fd_sc_hd__mux2_1
XTAP_TAPCELL_ROW_5_68 VGND VPWR sky130_fd_sc_hd__tapvpwrvgnd_1
X_113_ net14 VGND VGND VPWR VPWR net73 sky130_fd_sc_hd__buf_1
XFILLER_6_291 VGND VGND VPWR VPWR sky130_fd_sc_hd__decap_8
Xfanout8 net22 VGND VGND VPWR VPWR net8 sky130_fd_sc_hd__buf_2
XANTENNA_6 FrameData[9] VGND VGND VPWR VPWR sky130_fd_sc_hd__diode_2
XFILLER_3_261 VGND VGND VPWR VPWR sky130_fd_sc_hd__fill_1
XPHY_EDGE_ROW_6_Right_6 VGND VGND VPWR VPWR sky130_fd_sc_hd__decap_3
Xoutput98 net100 VGND VGND VPWR VPWR FrameStrobe_O[1] sky130_fd_sc_hd__buf_2
Xoutput87 net89 VGND VGND VPWR VPWR FrameStrobe_O[0] sky130_fd_sc_hd__buf_2
Xoutput76 net78 VGND VGND VPWR VPWR FrameData_O[29] sky130_fd_sc_hd__buf_2
Xoutput65 net67 VGND VGND VPWR VPWR FrameData_O[19] sky130_fd_sc_hd__buf_2
XFILLER_0_253 VPWR VGND VPWR VGND sky130_ef_sc_hd__decap_12
Xoutput54 net56 VGND VGND VPWR VPWR BOOT_top sky130_fd_sc_hd__buf_2
XTAP_TAPCELL_ROW_2_47 VGND VPWR sky130_fd_sc_hd__tapvpwrvgnd_1
XFILLER_7_9 VGND VGND VPWR VPWR sky130_fd_sc_hd__decap_6
XFILLER_5_367 VPWR VGND VPWR VGND sky130_ef_sc_hd__decap_12
XFILLER_3_69 VGND VGND VPWR VPWR sky130_fd_sc_hd__decap_6
XFILLER_5_6 VPWR VGND VPWR VGND sky130_ef_sc_hd__decap_12
XTAP_TAPCELL_ROW_11_111 VGND VPWR sky130_fd_sc_hd__tapvpwrvgnd_1
XFILLER_9_24 VPWR VGND VPWR VGND sky130_ef_sc_hd__decap_12
XFILLER_2_189 VGND VGND VPWR VPWR sky130_fd_sc_hd__decap_6
XFILLER_3_3 VPWR VGND VPWR VGND sky130_ef_sc_hd__decap_12
X_060_ net39 Inst_S_WARMBOOT_ConfigMem.Inst_frame0_bit17.Q VGND VGND VPWR VPWR _026_
+ sky130_fd_sc_hd__nand2b_1
XFILLER_9_57 VPWR VGND VPWR VGND sky130_ef_sc_hd__decap_12
X_189_ net51 VGND VGND VPWR VPWR net148 sky130_fd_sc_hd__buf_1
XFILLER_11_222 VGND VGND VPWR VPWR sky130_fd_sc_hd__fill_2
X_043_ net26 Inst_S_WARMBOOT_ConfigMem.Inst_frame0_bit26.Q Inst_S_WARMBOOT_ConfigMem.Inst_frame0_bit27.Q
+ VGND VGND VPWR VPWR _012_ sky130_fd_sc_hd__o21ba_1
X_112_ net13 VGND VGND VPWR VPWR net72 sky130_fd_sc_hd__buf_1
XTAP_TAPCELL_ROW_5_69 VGND VPWR sky130_fd_sc_hd__tapvpwrvgnd_1
XANTENNA_7 net77 VGND VGND VPWR VPWR sky130_fd_sc_hd__diode_2
XFILLER_6_25 VGND VGND VPWR VPWR sky130_fd_sc_hd__decap_3
Xoutput88 net90 VGND VGND VPWR VPWR FrameStrobe_O[10] sky130_fd_sc_hd__buf_2
Xoutput99 net101 VGND VGND VPWR VPWR FrameStrobe_O[2] sky130_fd_sc_hd__buf_2
XFILLER_0_221 VGND VGND VPWR VPWR sky130_fd_sc_hd__decap_3
XFILLER_0_265 VPWR VGND VPWR VGND sky130_ef_sc_hd__decap_12
Xoutput77 net79 VGND VGND VPWR VPWR FrameData_O[2] sky130_fd_sc_hd__buf_2
Xoutput66 net68 VGND VGND VPWR VPWR FrameData_O[1] sky130_fd_sc_hd__buf_2
Xoutput55 net57 VGND VGND VPWR VPWR FrameData_O[0] sky130_fd_sc_hd__buf_2
XTAP_TAPCELL_ROW_2_48 VGND VPWR sky130_fd_sc_hd__tapvpwrvgnd_1
XFILLER_8_365 VPWR VGND VPWR VGND sky130_ef_sc_hd__decap_12
XFILLER_8_321 VPWR VGND VPWR VGND sky130_ef_sc_hd__decap_12
XFILLER_9_107 VGND VGND VPWR VPWR sky130_fd_sc_hd__decap_4
XFILLER_8_195 VGND VGND VPWR VPWR sky130_fd_sc_hd__fill_1
XFILLER_5_379 VPWR VGND VPWR VGND sky130_ef_sc_hd__decap_12
XFILLER_5_335 VGND VGND VPWR VPWR sky130_fd_sc_hd__fill_1
XFILLER_3_15 VGND VGND VPWR VPWR sky130_fd_sc_hd__decap_8
XFILLER_10_139 VGND VGND VPWR VPWR sky130_fd_sc_hd__fill_1
XFILLER_10_106 VGND VGND VPWR VPWR sky130_fd_sc_hd__decap_4
XTAP_TAPCELL_ROW_11_112 VGND VPWR sky130_fd_sc_hd__tapvpwrvgnd_1
XFILLER_1_393 VGND VGND VPWR VPWR sky130_fd_sc_hd__decap_8
XFILLER_0_27 VGND VGND VPWR VPWR sky130_fd_sc_hd__fill_1
XPHY_EDGE_ROW_4_Left_16 VGND VGND VPWR VPWR sky130_fd_sc_hd__decap_3
XFILLER_9_69 VGND VGND VPWR VPWR sky130_fd_sc_hd__fill_2
XFILLER_9_36 VPWR VGND VPWR VGND sky130_ef_sc_hd__decap_12
X_188_ net52 VGND VGND VPWR VPWR net147 sky130_fd_sc_hd__clkbuf_1
XFILLER_11_289 VGND VGND VPWR VPWR sky130_fd_sc_hd__fill_2
X_042_ net38 Inst_S_WARMBOOT_ConfigMem.Inst_frame0_bit26.Q VGND VGND VPWR VPWR _011_
+ sky130_fd_sc_hd__nand2b_1
X_111_ net12 VGND VGND VPWR VPWR net71 sky130_fd_sc_hd__clkbuf_1
XFILLER_1_81 VPWR VGND VPWR VGND sky130_ef_sc_hd__decap_12
XANTENNA_8 FrameStrobe[1] VGND VGND VPWR VPWR sky130_fd_sc_hd__diode_2
Xoutput89 net91 VGND VGND VPWR VPWR FrameStrobe_O[11] sky130_fd_sc_hd__buf_2
Xoutput67 net69 VGND VGND VPWR VPWR FrameData_O[20] sky130_fd_sc_hd__buf_2
Xoutput78 net80 VGND VGND VPWR VPWR FrameData_O[30] sky130_fd_sc_hd__buf_2
XFILLER_0_277 VGND VGND VPWR VPWR sky130_fd_sc_hd__decap_3
XTAP_TAPCELL_ROW_2_49 VGND VPWR sky130_fd_sc_hd__tapvpwrvgnd_1
Xoutput56 net58 VGND VGND VPWR VPWR FrameData_O[10] sky130_fd_sc_hd__buf_2
XFILLER_8_377 VPWR VGND VPWR VGND sky130_ef_sc_hd__decap_12
XFILLER_8_333 VPWR VGND VPWR VGND sky130_ef_sc_hd__decap_12
XFILLER_8_141 VPWR VGND VPWR VGND sky130_ef_sc_hd__decap_12
XTAP_TAPCELL_ROW_11_113 VGND VPWR sky130_fd_sc_hd__tapvpwrvgnd_1
XFILLER_4_70 VGND VGND VPWR VPWR sky130_fd_sc_hd__decap_4
XFILLER_9_48 VGND VGND VPWR VPWR sky130_fd_sc_hd__decap_8
XFILLER_0_39 VPWR VGND VPWR VGND sky130_ef_sc_hd__decap_12
X_187_ net53 VGND VGND VPWR VPWR net146 sky130_fd_sc_hd__buf_1
XFILLER_11_279 VGND VGND VPWR VPWR sky130_fd_sc_hd__fill_1
X_041_ net42 net46 net50 net54 Inst_S_WARMBOOT_ConfigMem.Inst_frame0_bit26.Q Inst_S_WARMBOOT_ConfigMem.Inst_frame0_bit27.Q
+ VGND VGND VPWR VPWR _010_ sky130_fd_sc_hd__mux4_1
X_110_ net11 VGND VGND VPWR VPWR net70 sky130_fd_sc_hd__buf_1
XFILLER_1_93 VPWR VGND VPWR VGND sky130_ef_sc_hd__decap_12
XFILLER_4_209 VGND VGND VPWR VPWR sky130_fd_sc_hd__decap_3
XANTENNA_9 FrameStrobe[4] VGND VGND VPWR VPWR sky130_fd_sc_hd__diode_2
XFILLER_3_286 VGND VGND VPWR VPWR sky130_fd_sc_hd__decap_3
Xoutput57 net59 VGND VGND VPWR VPWR FrameData_O[11] sky130_fd_sc_hd__buf_2
Xoutput79 net81 VGND VGND VPWR VPWR FrameData_O[31] sky130_fd_sc_hd__buf_2
XFILLER_8_389 VGND VGND VPWR VPWR sky130_fd_sc_hd__decap_4
XFILLER_8_345 VPWR VGND VPWR VGND sky130_ef_sc_hd__decap_12
XFILLER_8_301 VGND VGND VPWR VPWR sky130_fd_sc_hd__decap_6
Xoutput68 net70 VGND VGND VPWR VPWR FrameData_O[21] sky130_fd_sc_hd__buf_2
XFILLER_5_348 VGND VGND VPWR VPWR sky130_fd_sc_hd__fill_1
XFILLER_5_337 VGND VGND VPWR VPWR sky130_fd_sc_hd__decap_4
XFILLER_8_197 VPWR VGND VPWR VGND sky130_ef_sc_hd__decap_12
XFILLER_8_153 VPWR VGND VPWR VGND sky130_ef_sc_hd__decap_12
XFILLER_4_392 VGND VGND VPWR VPWR sky130_fd_sc_hd__decap_8
XFILLER_2_307 VGND VGND VPWR VPWR sky130_fd_sc_hd__fill_1
XTAP_TAPCELL_ROW_11_114 VGND VPWR sky130_fd_sc_hd__tapvpwrvgnd_1
XFILLER_5_167 VGND VGND VPWR VPWR sky130_fd_sc_hd__fill_1
XFILLER_4_82 VGND VGND VPWR VPWR sky130_fd_sc_hd__fill_2
X_186_ net54 VGND VGND VPWR VPWR net160 sky130_fd_sc_hd__clkbuf_1
XFILLER_0_29 VGND VGND VPWR VPWR sky130_fd_sc_hd__decap_6
XFILLER_9_281 VPWR VGND VPWR VGND sky130_ef_sc_hd__decap_12
X_040_ _000_ _005_ _009_ VGND VGND VPWR VPWR net164 sky130_fd_sc_hd__o21a_1
XFILLER_1_3 VPWR VGND VPWR VGND sky130_ef_sc_hd__decap_12
XFILLER_10_280 VGND VGND VPWR VPWR sky130_fd_sc_hd__fill_2
XFILLER_6_251 VGND VGND VPWR VPWR sky130_fd_sc_hd__fill_1
X_169_ net47 VGND VGND VPWR VPWR net143 sky130_fd_sc_hd__clkbuf_1
XFILLER_10_70 VGND VGND VPWR VPWR sky130_fd_sc_hd__fill_2
XFILLER_3_265 VPWR VGND VPWR VGND sky130_ef_sc_hd__decap_12
Xoutput69 net71 VGND VGND VPWR VPWR FrameData_O[22] sky130_fd_sc_hd__buf_2
XFILLER_8_357 VGND VGND VPWR VPWR sky130_fd_sc_hd__decap_6
Xoutput58 net60 VGND VGND VPWR VPWR FrameData_O[12] sky130_fd_sc_hd__buf_2
XS_WARMBOOT_164 VGND VGND VPWR VPWR S_WARMBOOT_164/HI Co sky130_fd_sc_hd__conb_1
XFILLER_5_305 VPWR VGND VPWR VGND sky130_ef_sc_hd__decap_12
XFILLER_8_165 VPWR VGND VPWR VGND sky130_ef_sc_hd__decap_12
XFILLER_4_371 VGND VGND VPWR VPWR sky130_fd_sc_hd__decap_4
XTAP_TAPCELL_ROW_11_115 VGND VPWR sky130_fd_sc_hd__tapvpwrvgnd_1
XFILLER_1_363 VGND VGND VPWR VPWR sky130_fd_sc_hd__fill_1
XFILLER_5_113 VPWR VGND VPWR VGND sky130_ef_sc_hd__decap_12
X_185_ net55 VGND VGND VPWR VPWR net159 sky130_fd_sc_hd__buf_1
XFILLER_9_293 VPWR VGND VPWR VGND sky130_ef_sc_hd__decap_12
X_099_ FrameData[10] VGND VGND VPWR VPWR net58 sky130_fd_sc_hd__clkbuf_2
X_168_ S4END[8] VGND VGND VPWR VPWR net142 sky130_fd_sc_hd__clkbuf_1
XFILLER_6_241 VGND VGND VPWR VPWR sky130_fd_sc_hd__decap_3
XFILLER_1_51 VGND VGND VPWR VPWR sky130_fd_sc_hd__decap_4
XFILLER_6_29 VPWR VGND VPWR VGND sky130_ef_sc_hd__decap_12
XFILLER_3_277 VGND VGND VPWR VPWR sky130_fd_sc_hd__decap_3
Xoutput59 net61 VGND VGND VPWR VPWR FrameData_O[13] sky130_fd_sc_hd__buf_2
XFILLER_0_225 VPWR VGND VPWR VGND sky130_ef_sc_hd__decap_12
XPHY_EDGE_ROW_1_Right_1 VGND VGND VPWR VPWR sky130_fd_sc_hd__decap_3
XFILLER_7_391 VGND VGND VPWR VPWR sky130_fd_sc_hd__fill_1
XFILLER_5_317 VPWR VGND VPWR VGND sky130_ef_sc_hd__decap_12
XFILLER_8_177 VPWR VGND VPWR VGND sky130_ef_sc_hd__decap_12
XFILLER_2_309 VPWR VGND VPWR VGND sky130_ef_sc_hd__decap_12
XTAP_TAPCELL_ROW_11_116 VGND VPWR sky130_fd_sc_hd__tapvpwrvgnd_1
XFILLER_5_169 VPWR VGND VPWR VGND sky130_ef_sc_hd__decap_12
XFILLER_1_342 VPWR VGND VPWR VGND sky130_ef_sc_hd__decap_12
XFILLER_1_386 VGND VGND VPWR VPWR sky130_fd_sc_hd__decap_6
XFILLER_5_125 VPWR VGND VPWR VGND sky130_ef_sc_hd__decap_12
XFILLER_2_117 VGND VGND VPWR VPWR sky130_fd_sc_hd__fill_1
XFILLER_2_139 VGND VGND VPWR VPWR sky130_fd_sc_hd__fill_1
XFILLER_9_261 VGND VGND VPWR VPWR sky130_fd_sc_hd__decap_4
XTAP_TAPCELL_ROW_9_94 VGND VPWR sky130_fd_sc_hd__tapvpwrvgnd_1
XFILLER_6_401 VGND VGND VPWR VPWR sky130_fd_sc_hd__decap_3
XTAP_TAPCELL_ROW_0_30 VGND VPWR sky130_fd_sc_hd__tapvpwrvgnd_1
XFILLER_1_161 VGND VGND VPWR VPWR sky130_fd_sc_hd__decap_6
X_184_ SS4END[8] VGND VGND VPWR VPWR net158 sky130_fd_sc_hd__buf_1
X_167_ S4END[9] VGND VGND VPWR VPWR net141 sky130_fd_sc_hd__buf_1
X_098_ FrameData[9] VGND VGND VPWR VPWR net88 sky130_fd_sc_hd__buf_1
XFILLER_10_94 VGND VGND VPWR VPWR sky130_fd_sc_hd__fill_2
XFILLER_3_223 VGND VGND VPWR VPWR sky130_fd_sc_hd__fill_1
XPHY_EDGE_ROW_11_Left_23 VGND VGND VPWR VPWR sky130_fd_sc_hd__decap_3
XTAP_TAPCELL_ROW_6_73 VGND VPWR sky130_fd_sc_hd__tapvpwrvgnd_1
XFILLER_0_237 VPWR VGND VPWR VGND sky130_ef_sc_hd__decap_12
XFILLER_7_95 VGND VGND VPWR VPWR sky130_fd_sc_hd__fill_1
XFILLER_7_62 VPWR VGND VPWR VGND sky130_ef_sc_hd__decap_12
XFILLER_7_51 VGND VGND VPWR VPWR sky130_fd_sc_hd__fill_2
XFILLER_8_189 VGND VGND VPWR VPWR sky130_fd_sc_hd__decap_6
XFILLER_5_329 VGND VGND VPWR VPWR sky130_fd_sc_hd__decap_6
XTAP_TAPCELL_ROW_3_52 VGND VPWR sky130_fd_sc_hd__tapvpwrvgnd_1
XFILLER_4_340 VPWR VGND VPWR VGND sky130_ef_sc_hd__decap_12
XTAP_TAPCELL_ROW_11_117 VGND VPWR sky130_fd_sc_hd__tapvpwrvgnd_1
XFILLER_5_137 VPWR VGND VPWR VGND sky130_ef_sc_hd__decap_12
XFILLER_1_321 VPWR VGND VPWR VGND sky130_ef_sc_hd__decap_12
XFILLER_1_354 VGND VGND VPWR VPWR sky130_fd_sc_hd__fill_2
XFILLER_4_41 VGND VGND VPWR VPWR sky130_fd_sc_hd__fill_2
XFILLER_4_85 VGND VGND VPWR VPWR sky130_fd_sc_hd__decap_3
XFILLER_11_409 VGND VGND VPWR VPWR sky130_fd_sc_hd__fill_1
XTAP_TAPCELL_ROW_9_95 VGND VPWR sky130_fd_sc_hd__tapvpwrvgnd_1
XTAP_TAPCELL_ROW_0_31 VGND VPWR sky130_fd_sc_hd__tapvpwrvgnd_1
XFILLER_1_195 VGND VGND VPWR VPWR sky130_fd_sc_hd__fill_1
X_183_ SS4END[9] VGND VGND VPWR VPWR net157 sky130_fd_sc_hd__buf_1
XFILLER_10_250 VGND VGND VPWR VPWR sky130_fd_sc_hd__fill_2
XFILLER_3_405 VGND VGND VPWR VPWR sky130_fd_sc_hd__fill_1
X_097_ FrameData[8] VGND VGND VPWR VPWR net87 sky130_fd_sc_hd__buf_1
XFILLER_6_265 VGND VGND VPWR VPWR sky130_fd_sc_hd__decap_4
XFILLER_6_221 VPWR VGND VPWR VGND sky130_ef_sc_hd__decap_12
X_166_ S4END[10] VGND VGND VPWR VPWR net140 sky130_fd_sc_hd__clkbuf_2
XTAP_TAPCELL_ROW_6_74 VGND VPWR sky130_fd_sc_hd__tapvpwrvgnd_1
X_149_ net39 VGND VGND VPWR VPWR net117 sky130_fd_sc_hd__clkbuf_1
XFILLER_0_249 VGND VGND VPWR VPWR sky130_fd_sc_hd__decap_3
XFILLER_7_371 VPWR VGND VPWR VGND sky130_ef_sc_hd__decap_12
XFILLER_7_74 VPWR VGND VPWR VGND sky130_ef_sc_hd__decap_12
XTAP_TAPCELL_ROW_3_53 VGND VPWR sky130_fd_sc_hd__tapvpwrvgnd_1
XFILLER_4_352 VGND VGND VPWR VPWR sky130_fd_sc_hd__fill_1
XTAP_TAPCELL_ROW_11_118 VGND VPWR sky130_fd_sc_hd__tapvpwrvgnd_1
XFILLER_5_149 VPWR VGND VPWR VGND sky130_ef_sc_hd__decap_12
XFILLER_1_333 VGND VGND VPWR VPWR sky130_fd_sc_hd__decap_3
XFILLER_4_160 VGND VGND VPWR VPWR sky130_fd_sc_hd__fill_1
XFILLER_4_97 VGND VGND VPWR VPWR sky130_fd_sc_hd__fill_1
XFILLER_10_410 VGND VGND VPWR VPWR sky130_fd_sc_hd__fill_2
XTAP_TAPCELL_ROW_0_32 VGND VPWR sky130_fd_sc_hd__tapvpwrvgnd_1
X_182_ SS4END[10] VGND VGND VPWR VPWR net156 sky130_fd_sc_hd__buf_1
XTAP_TAPCELL_ROW_9_96 VGND VPWR sky130_fd_sc_hd__tapvpwrvgnd_1
XFILLER_11_207 VPWR VGND VPWR VGND sky130_ef_sc_hd__decap_12
X_165_ S4END[11] VGND VGND VPWR VPWR net139 sky130_fd_sc_hd__buf_1
X_096_ FrameData[7] VGND VGND VPWR VPWR net86 sky130_fd_sc_hd__clkbuf_1
XFILLER_6_299 VGND VGND VPWR VPWR sky130_fd_sc_hd__fill_1
XFILLER_6_233 VGND VGND VPWR VPWR sky130_fd_sc_hd__decap_8
X_148_ S2MID[4] VGND VGND VPWR VPWR net116 sky130_fd_sc_hd__clkbuf_1
XTAP_TAPCELL_ROW_6_75 VGND VPWR sky130_fd_sc_hd__tapvpwrvgnd_1
XFILLER_3_225 VPWR VGND VPWR VGND sky130_ef_sc_hd__decap_12
X_079_ net13 net8 VGND VGND VPWR VPWR Inst_S_WARMBOOT_ConfigMem.Inst_frame0_bit23.Q
+ sky130_fd_sc_hd__dlxtp_1
XFILLER_7_383 VGND VGND VPWR VPWR sky130_fd_sc_hd__decap_8
XFILLER_7_86 VGND VGND VPWR VPWR sky130_fd_sc_hd__decap_3
XFILLER_7_31 VPWR VGND VPWR VGND sky130_ef_sc_hd__decap_12
XPHY_EDGE_ROW_5_Right_5 VGND VGND VPWR VPWR sky130_fd_sc_hd__decap_3
XTAP_TAPCELL_ROW_3_54 VGND VPWR sky130_fd_sc_hd__tapvpwrvgnd_1
XFILLER_4_375 VGND VGND VPWR VPWR sky130_fd_sc_hd__fill_1
XTAP_TAPCELL_ROW_11_119 VGND VPWR sky130_fd_sc_hd__tapvpwrvgnd_1
XTAP_TAPCELL_ROW_11_108 VGND VPWR sky130_fd_sc_hd__tapvpwrvgnd_1
XFILLER_1_312 VGND VGND VPWR VPWR sky130_fd_sc_hd__decap_6
XFILLER_1_367 VPWR VGND VPWR VGND sky130_ef_sc_hd__decap_12
XFILLER_5_106 VGND VGND VPWR VPWR sky130_fd_sc_hd__decap_6
XFILLER_2_109 VGND VGND VPWR VPWR sky130_fd_sc_hd__decap_8
X_181_ SS4END[11] VGND VGND VPWR VPWR net155 sky130_fd_sc_hd__buf_1
XTAP_TAPCELL_ROW_0_33 VGND VPWR sky130_fd_sc_hd__tapvpwrvgnd_1
XTAP_TAPCELL_ROW_9_97 VGND VPWR sky130_fd_sc_hd__tapvpwrvgnd_1
XFILLER_10_285 VPWR VGND VPWR VGND sky130_ef_sc_hd__decap_12
X_095_ FrameData[6] VGND VGND VPWR VPWR net85 sky130_fd_sc_hd__clkbuf_2
X_164_ S4END[12] VGND VGND VPWR VPWR net138 sky130_fd_sc_hd__clkbuf_2
XFILLER_1_55 VGND VGND VPWR VPWR sky130_fd_sc_hd__fill_1
XFILLER_10_64 VGND VGND VPWR VPWR sky130_fd_sc_hd__fill_2
XTAP_TAPCELL_ROW_6_76 VGND VPWR sky130_fd_sc_hd__tapvpwrvgnd_1
XFILLER_3_237 VPWR VGND VPWR VGND sky130_ef_sc_hd__decap_12
X_147_ S2MID[5] VGND VGND VPWR VPWR net115 sky130_fd_sc_hd__clkbuf_1
X_078_ net12 net8 VGND VGND VPWR VPWR Inst_S_WARMBOOT_ConfigMem.Inst_frame0_bit22.Q
+ sky130_fd_sc_hd__dlxtp_1
XFILLER_8_307 VGND VGND VPWR VPWR sky130_fd_sc_hd__fill_1
XFILLER_7_43 VGND VGND VPWR VPWR sky130_fd_sc_hd__decap_8
XPHY_EDGE_ROW_11_Right_11 VGND VGND VPWR VPWR sky130_fd_sc_hd__decap_3
XTAP_TAPCELL_ROW_3_55 VGND VPWR sky130_fd_sc_hd__tapvpwrvgnd_1
XFILLER_4_365 VGND VGND VPWR VPWR sky130_fd_sc_hd__fill_1
XFILLER_4_387 VGND VGND VPWR VPWR sky130_fd_sc_hd__fill_2
XTAP_TAPCELL_ROW_11_109 VGND VPWR sky130_fd_sc_hd__tapvpwrvgnd_1
XFILLER_1_302 VGND VGND VPWR VPWR sky130_fd_sc_hd__fill_1
XFILLER_1_379 VGND VGND VPWR VPWR sky130_fd_sc_hd__fill_2
X_180_ SS4END[12] VGND VGND VPWR VPWR net154 sky130_fd_sc_hd__buf_1
XTAP_TAPCELL_ROW_9_98 VGND VPWR sky130_fd_sc_hd__tapvpwrvgnd_1
XFILLER_1_187 VGND VGND VPWR VPWR sky130_fd_sc_hd__decap_8
XTAP_TAPCELL_ROW_0_34 VGND VPWR sky130_fd_sc_hd__tapvpwrvgnd_1
XPHY_EDGE_ROW_3_Left_15 VGND VGND VPWR VPWR sky130_fd_sc_hd__decap_3
XFILLER_10_297 VGND VGND VPWR VPWR sky130_fd_sc_hd__fill_1
XFILLER_10_264 VGND VGND VPWR VPWR sky130_fd_sc_hd__fill_1
X_094_ FrameData[5] VGND VGND VPWR VPWR net84 sky130_fd_sc_hd__clkbuf_2
X_163_ S4END[13] VGND VGND VPWR VPWR net137 sky130_fd_sc_hd__buf_1
XFILLER_10_76 VGND VGND VPWR VPWR sky130_fd_sc_hd__fill_1
XFILLER_10_43 VGND VGND VPWR VPWR sky130_fd_sc_hd__fill_2
XFILLER_10_21 VGND VGND VPWR VPWR sky130_fd_sc_hd__decap_3
XFILLER_3_249 VPWR VGND VPWR VGND sky130_ef_sc_hd__decap_12
X_146_ S2MID[6] VGND VGND VPWR VPWR net114 sky130_fd_sc_hd__clkbuf_1
XTAP_TAPCELL_ROW_6_77 VGND VPWR sky130_fd_sc_hd__tapvpwrvgnd_1
X_077_ net11 net8 VGND VGND VPWR VPWR Inst_S_WARMBOOT_ConfigMem.Inst_frame0_bit21.Q
+ sky130_fd_sc_hd__dlxtp_1
XFILLER_7_99 VPWR VGND VPWR VGND sky130_ef_sc_hd__decap_12
X_129_ FrameStrobe[8] VGND VGND VPWR VPWR net107 sky130_fd_sc_hd__clkbuf_1
XFILLER_8_127 VPWR VGND VPWR VGND sky130_ef_sc_hd__decap_12
XTAP_TAPCELL_ROW_3_56 VGND VPWR sky130_fd_sc_hd__tapvpwrvgnd_1
XTAP_TAPCELL_ROW_9_99 VGND VPWR sky130_fd_sc_hd__tapvpwrvgnd_1
XFILLER_1_111 VGND VGND VPWR VPWR sky130_fd_sc_hd__fill_1
XTAP_TAPCELL_ROW_0_24 VGND VPWR sky130_fd_sc_hd__tapvpwrvgnd_1
XTAP_TAPCELL_ROW_0_35 VGND VPWR sky130_fd_sc_hd__tapvpwrvgnd_1
XFILLER_10_232 VGND VGND VPWR VPWR sky130_fd_sc_hd__decap_6
XFILLER_6_269 VGND VGND VPWR VPWR sky130_fd_sc_hd__fill_1
X_093_ FrameData[4] VGND VGND VPWR VPWR net83 sky130_fd_sc_hd__clkbuf_2
X_162_ S4END[14] VGND VGND VPWR VPWR net136 sky130_fd_sc_hd__clkbuf_2
XFILLER_1_57 VPWR VGND VPWR VGND sky130_ef_sc_hd__decap_12
Xinput1 FrameData[13] VGND VGND VPWR VPWR net1 sky130_fd_sc_hd__buf_1
X_145_ S2MID[7] VGND VGND VPWR VPWR net113 sky130_fd_sc_hd__buf_1
XTAP_TAPCELL_ROW_6_78 VGND VPWR sky130_fd_sc_hd__tapvpwrvgnd_1
X_076_ net10 net8 VGND VGND VPWR VPWR Inst_S_WARMBOOT_ConfigMem.Inst_frame0_bit20.Q
+ sky130_fd_sc_hd__dlxtp_1
XFILLER_0_209 VPWR VGND VPWR VGND sky130_ef_sc_hd__decap_12
XFILLER_8_309 VPWR VGND VPWR VGND sky130_ef_sc_hd__decap_12
XFILLER_7_320 VGND VGND VPWR VPWR sky130_fd_sc_hd__fill_1
X_059_ net43 net47 net51 net55 Inst_S_WARMBOOT_ConfigMem.Inst_frame0_bit17.Q Inst_S_WARMBOOT_ConfigMem.Inst_frame0_bit18.Q
+ VGND VGND VPWR VPWR _025_ sky130_fd_sc_hd__mux4_1
X_128_ FrameStrobe[7] VGND VGND VPWR VPWR net106 sky130_fd_sc_hd__clkbuf_1
XFILLER_8_139 VGND VGND VPWR VPWR sky130_fd_sc_hd__fill_1
XTAP_TAPCELL_ROW_3_57 VGND VPWR sky130_fd_sc_hd__tapvpwrvgnd_1
XFILLER_4_312 VGND VGND VPWR VPWR sky130_fd_sc_hd__fill_1
XPHY_EDGE_ROW_9_Right_9 VGND VGND VPWR VPWR sky130_fd_sc_hd__decap_3
XFILLER_7_161 VGND VGND VPWR VPWR sky130_fd_sc_hd__decap_6
XFILLER_4_356 VGND VGND VPWR VPWR sky130_fd_sc_hd__decap_8
XFILLER_1_337 VGND VGND VPWR VPWR sky130_fd_sc_hd__fill_1
XFILLER_1_359 VGND VGND VPWR VPWR sky130_fd_sc_hd__decap_4
XFILLER_1_167 VGND VGND VPWR VPWR sky130_fd_sc_hd__fill_1
XTAP_TAPCELL_ROW_0_25 VGND VPWR sky130_fd_sc_hd__tapvpwrvgnd_1
XTAP_TAPCELL_ROW_0_36 VGND VPWR sky130_fd_sc_hd__tapvpwrvgnd_1
XFILLER_9_223 VGND VGND VPWR VPWR sky130_fd_sc_hd__fill_1
XFILLER_9_201 VPWR VGND VPWR VGND sky130_ef_sc_hd__decap_12
X_161_ S4END[15] VGND VGND VPWR VPWR net129 sky130_fd_sc_hd__clkbuf_1
X_092_ FrameData[3] VGND VGND VPWR VPWR net82 sky130_fd_sc_hd__clkbuf_1
XFILLER_1_69 VPWR VGND VPWR VGND sky130_ef_sc_hd__decap_12
Xinput2 FrameData[14] VGND VGND VPWR VPWR net2 sky130_fd_sc_hd__buf_1
XFILLER_5_281 VPWR VGND VPWR VGND sky130_ef_sc_hd__decap_12
XFILLER_3_207 VPWR VGND VPWR VGND sky130_ef_sc_hd__decap_12
XFILLER_10_89 VGND VGND VPWR VPWR sky130_fd_sc_hd__fill_1
X_075_ net9 net8 VGND VGND VPWR VPWR Inst_S_WARMBOOT_ConfigMem.Inst_frame0_bit19.Q
+ sky130_fd_sc_hd__dlxtp_1
XTAP_TAPCELL_ROW_6_79 VGND VPWR sky130_fd_sc_hd__tapvpwrvgnd_1
XFILLER_2_251 VGND VGND VPWR VPWR sky130_fd_sc_hd__fill_1
X_144_ Inst_S_WARMBOOT_switch_matrix.N1BEG3 VGND VGND VPWR VPWR net112 sky130_fd_sc_hd__buf_1
XFILLER_7_57 VGND VGND VPWR VPWR sky130_fd_sc_hd__fill_2
X_058_ _003_ _020_ _024_ VGND VGND VPWR VPWR net161 sky130_fd_sc_hd__o21a_1
X_127_ FrameStrobe[6] VGND VGND VPWR VPWR net105 sky130_fd_sc_hd__clkbuf_1
XTAP_TAPCELL_ROW_3_58 VGND VPWR sky130_fd_sc_hd__tapvpwrvgnd_1
XFILLER_4_379 VGND VGND VPWR VPWR sky130_fd_sc_hd__decap_8
XFILLER_3_390 VGND VGND VPWR VPWR sky130_fd_sc_hd__fill_2
XTAP_TAPCELL_ROW_10_101 VGND VPWR sky130_fd_sc_hd__tapvpwrvgnd_1
XFILLER_4_176 VGND VGND VPWR VPWR sky130_fd_sc_hd__fill_2
XFILLER_4_187 VGND VGND VPWR VPWR sky130_fd_sc_hd__decap_6
XFILLER_0_393 VGND VGND VPWR VPWR sky130_fd_sc_hd__decap_4
XFILLER_1_113 VPWR VGND VPWR VGND sky130_ef_sc_hd__decap_12
XTAP_TAPCELL_ROW_0_26 VGND VPWR sky130_fd_sc_hd__tapvpwrvgnd_1
XTAP_TAPCELL_ROW_0_37 VGND VPWR sky130_fd_sc_hd__tapvpwrvgnd_1
XFILLER_9_268 VPWR VGND VPWR VGND sky130_ef_sc_hd__decap_12
XFILLER_9_213 VGND VGND VPWR VPWR sky130_fd_sc_hd__fill_1
XFILLER_10_256 VGND VGND VPWR VPWR sky130_fd_sc_hd__decap_8
X_091_ FrameData[2] VGND VGND VPWR VPWR net79 sky130_fd_sc_hd__clkbuf_2
XFILLER_6_205 VGND VGND VPWR VPWR sky130_fd_sc_hd__fill_1
X_160_ net28 VGND VGND VPWR VPWR net128 sky130_fd_sc_hd__buf_1
XFILLER_1_15 VPWR VGND VPWR VGND sky130_ef_sc_hd__decap_12
XPHY_EDGE_ROW_7_Left_19 VGND VGND VPWR VPWR sky130_fd_sc_hd__decap_3
Xinput3 FrameData[15] VGND VGND VPWR VPWR net3 sky130_fd_sc_hd__buf_1
XFILLER_5_293 VPWR VGND VPWR VGND sky130_ef_sc_hd__decap_12
X_143_ Inst_S_WARMBOOT_switch_matrix.N1BEG2 VGND VGND VPWR VPWR net111 sky130_fd_sc_hd__buf_1
X_074_ net6 net8 VGND VGND VPWR VPWR Inst_S_WARMBOOT_ConfigMem.Inst_frame0_bit18.Q
+ sky130_fd_sc_hd__dlxtp_1