*SPEF "ieee 1481-1999"
*DESIGN "S_term_EF_SRAM"
*DATE "08:55:02 Monday February 24, 2025"
*VENDOR "The OpenROAD Project"
*PROGRAM "OpenROAD"
*VERSION "87af90f72f3f9be1fdfa1d886f0dd8d8b8f34694"
*DESIGN_FLOW "NAME_SCOPE LOCAL" "PIN_CAP NONE"
*DIVIDER /
*DELIMITER :
*BUS_DELIMITER []
*T_UNIT 1 NS
*C_UNIT 1 PF
*R_UNIT 1 OHM
*L_UNIT 1 HENRY

*NAME_MAP
*1 FrameData[0]
*2 FrameData[10]
*3 FrameData[11]
*4 FrameData[12]
*5 FrameData[13]
*6 FrameData[14]
*7 FrameData[15]
*8 FrameData[16]
*9 FrameData[17]
*10 FrameData[18]
*11 FrameData[19]
*12 FrameData[1]
*13 FrameData[20]
*14 FrameData[21]
*15 FrameData[22]
*16 FrameData[23]
*17 FrameData[24]
*18 FrameData[25]
*19 FrameData[26]
*20 FrameData[27]
*21 FrameData[28]
*22 FrameData[29]
*23 FrameData[2]
*24 FrameData[30]
*25 FrameData[31]
*26 FrameData[3]
*27 FrameData[4]
*28 FrameData[5]
*29 FrameData[6]
*30 FrameData[7]
*31 FrameData[8]
*32 FrameData[9]
*33 FrameData_O[0]
*34 FrameData_O[10]
*35 FrameData_O[11]
*36 FrameData_O[12]
*37 FrameData_O[13]
*38 FrameData_O[14]
*39 FrameData_O[15]
*40 FrameData_O[16]
*41 FrameData_O[17]
*42 FrameData_O[18]
*43 FrameData_O[19]
*44 FrameData_O[1]
*45 FrameData_O[20]
*46 FrameData_O[21]
*47 FrameData_O[22]
*48 FrameData_O[23]
*49 FrameData_O[24]
*50 FrameData_O[25]
*51 FrameData_O[26]
*52 FrameData_O[27]
*53 FrameData_O[28]
*54 FrameData_O[29]
*55 FrameData_O[2]
*56 FrameData_O[30]
*57 FrameData_O[31]
*58 FrameData_O[3]
*59 FrameData_O[4]
*60 FrameData_O[5]
*61 FrameData_O[6]
*62 FrameData_O[7]
*63 FrameData_O[8]
*64 FrameData_O[9]
*65 FrameStrobe[0]
*66 FrameStrobe[10]
*67 FrameStrobe[11]
*68 FrameStrobe[12]
*69 FrameStrobe[13]
*70 FrameStrobe[14]
*71 FrameStrobe[15]
*72 FrameStrobe[16]
*73 FrameStrobe[17]
*74 FrameStrobe[18]
*75 FrameStrobe[19]
*76 FrameStrobe[1]
*77 FrameStrobe[2]
*78 FrameStrobe[3]
*79 FrameStrobe[4]
*80 FrameStrobe[5]
*81 FrameStrobe[6]
*82 FrameStrobe[7]
*83 FrameStrobe[8]
*84 FrameStrobe[9]
*85 FrameStrobe_O[0]
*86 FrameStrobe_O[10]
*87 FrameStrobe_O[11]
*88 FrameStrobe_O[12]
*89 FrameStrobe_O[13]
*90 FrameStrobe_O[14]
*91 FrameStrobe_O[15]
*92 FrameStrobe_O[16]
*93 FrameStrobe_O[17]
*94 FrameStrobe_O[18]
*95 FrameStrobe_O[19]
*96 FrameStrobe_O[1]
*97 FrameStrobe_O[2]
*98 FrameStrobe_O[3]
*99 FrameStrobe_O[4]
*100 FrameStrobe_O[5]
*101 FrameStrobe_O[6]
*102 FrameStrobe_O[7]
*103 FrameStrobe_O[8]
*104 FrameStrobe_O[9]
*105 N1BEG[0]
*106 N1BEG[1]
*107 N1BEG[2]
*108 N1BEG[3]
*109 N2BEG[0]
*110 N2BEG[1]
*111 N2BEG[2]
*112 N2BEG[3]
*113 N2BEG[4]
*114 N2BEG[5]
*115 N2BEG[6]
*116 N2BEG[7]
*117 N2BEGb[0]
*118 N2BEGb[1]
*119 N2BEGb[2]
*120 N2BEGb[3]
*121 N2BEGb[4]
*122 N2BEGb[5]
*123 N2BEGb[6]
*124 N2BEGb[7]
*125 N4BEG[0]
*126 N4BEG[10]
*127 N4BEG[11]
*128 N4BEG[12]
*129 N4BEG[13]
*130 N4BEG[14]
*131 N4BEG[15]
*132 N4BEG[1]
*133 N4BEG[2]
*134 N4BEG[3]
*135 N4BEG[4]
*136 N4BEG[5]
*137 N4BEG[6]
*138 N4BEG[7]
*139 N4BEG[8]
*140 N4BEG[9]
*141 S1END[0]
*142 S1END[1]
*143 S1END[2]
*144 S1END[3]
*145 S2END[0]
*146 S2END[1]
*147 S2END[2]
*148 S2END[3]
*149 S2END[4]
*150 S2END[5]
*151 S2END[6]
*152 S2END[7]
*153 S2MID[0]
*154 S2MID[1]
*155 S2MID[2]
*156 S2MID[3]
*157 S2MID[4]
*158 S2MID[5]
*159 S2MID[6]
*160 S2MID[7]
*161 S4END[0]
*162 S4END[10]
*163 S4END[11]
*164 S4END[12]
*165 S4END[13]
*166 S4END[14]
*167 S4END[15]
*168 S4END[1]
*169 S4END[2]
*170 S4END[3]
*171 S4END[4]
*172 S4END[5]
*173 S4END[6]
*174 S4END[7]
*175 S4END[8]
*176 S4END[9]
*177 UserCLK
*178 UserCLKo
*181 net1
*182 net10
*183 net11
*184 net12
*185 net13
*186 net14
*187 net15
*188 net16
*189 net17
*190 net18
*191 net19
*192 net2
*193 net20
*194 net21
*195 net22
*196 net23
*197 net24
*198 net25
*199 net26
*200 net27
*201 net28
*202 net29
*203 net3
*204 net30
*205 net31
*206 net32
*207 net33
*208 net34
*209 net35
*210 net36
*211 net37
*212 net38
*213 net39
*214 net4
*215 net40
*216 net41
*217 net42
*218 net43
*219 net44
*220 net45
*221 net46
*222 net47
*223 net48
*224 net49
*225 net5
*226 net50
*227 net51
*228 net52
*229 net53
*230 net54
*231 net55
*232 net56
*233 net57
*234 net58
*235 net59
*236 net6
*237 net60
*238 net61
*239 net62
*240 net63
*241 net64
*242 net65
*243 net66
*244 net67
*245 net68
*246 net69
*247 net7
*248 net70
*249 net71
*250 net72
*251 net73
*252 net74
*253 net75
*254 net76
*255 net77
*256 net78
*257 net79
*258 net8
*259 net80
*260 net81
*261 net82
*262 net83
*263 net84
*264 net85
*265 net86
*266 net87
*267 net88
*268 net89
*269 net9
*270 ANTENNA_1
*271 ANTENNA_10
*272 ANTENNA_11
*273 ANTENNA_12
*274 ANTENNA_13
*275 ANTENNA_14
*276 ANTENNA_15
*277 ANTENNA_16
*278 ANTENNA_17
*279 ANTENNA_18
*280 ANTENNA_19
*281 ANTENNA_2
*282 ANTENNA_20
*283 ANTENNA_21
*284 ANTENNA_22
*285 ANTENNA_23
*286 ANTENNA_24
*287 ANTENNA_25
*288 ANTENNA_26
*289 ANTENNA_27
*290 ANTENNA_28
*291 ANTENNA_29
*292 ANTENNA_3
*293 ANTENNA_4
*294 ANTENNA_5
*295 ANTENNA_6
*296 ANTENNA_7
*297 ANTENNA_8
*298 ANTENNA_9
*299 FILLER_0_109
*300 FILLER_0_113
*301 FILLER_0_125
*302 FILLER_0_137
*303 FILLER_0_141
*304 FILLER_0_15
*305 FILLER_0_153
*306 FILLER_0_165
*307 FILLER_0_169
*308 FILLER_0_181
*309 FILLER_0_193
*310 FILLER_0_197
*311 FILLER_0_209
*312 FILLER_0_221
*313 FILLER_0_225
*314 FILLER_0_237
*315 FILLER_0_249
*316 FILLER_0_253
*317 FILLER_0_265
*318 FILLER_0_27
*319 FILLER_0_277
*320 FILLER_0_281
*321 FILLER_0_29
*322 FILLER_0_293
*323 FILLER_0_3
*324 FILLER_0_305
*325 FILLER_0_309
*326 FILLER_0_317
*327 FILLER_0_337
*328 FILLER_0_41
*329 FILLER_0_53
*330 FILLER_0_57
*331 FILLER_0_69
*332 FILLER_0_81
*333 FILLER_0_85
*334 FILLER_0_97
*335 FILLER_10_110
*336 FILLER_10_116
*337 FILLER_10_122
*338 FILLER_10_134
*339 FILLER_10_141
*340 FILLER_10_15
*341 FILLER_10_153
*342 FILLER_10_165
*343 FILLER_10_177
*344 FILLER_10_189
*345 FILLER_10_195
*346 FILLER_10_197
*347 FILLER_10_209
*348 FILLER_10_221
*349 FILLER_10_233
*350 FILLER_10_245
*351 FILLER_10_251
*352 FILLER_10_253
*353 FILLER_10_265
*354 FILLER_10_27
*355 FILLER_10_275
*356 FILLER_10_287
*357 FILLER_10_29
*358 FILLER_10_3
*359 FILLER_10_303
*360 FILLER_10_307
*361 FILLER_10_313
*362 FILLER_10_33
*363 FILLER_10_38
*364 FILLER_10_50
*365 FILLER_10_54
*366 FILLER_10_59
*367 FILLER_10_65
*368 FILLER_10_69
*369 FILLER_10_74
*370 FILLER_10_78
*371 FILLER_10_83
*372 FILLER_10_85
*373 FILLER_10_92
*374 FILLER_10_98
*375 FILLER_11_113
*376 FILLER_11_145
*377 FILLER_11_15
*378 FILLER_11_157
*379 FILLER_11_165
*380 FILLER_11_169
*381 FILLER_11_181
*382 FILLER_11_193
*383 FILLER_11_197
*384 FILLER_11_209
*385 FILLER_11_221
*386 FILLER_11_225
*387 FILLER_11_237
*388 FILLER_11_27
*389 FILLER_11_277
*390 FILLER_11_29
*391 FILLER_11_3
*392 FILLER_11_305
*393 FILLER_11_321
*394 FILLER_11_337
*395 FILLER_11_57
*396 FILLER_11_85
*397 FILLER_1_105
*398 FILLER_1_111
*399 FILLER_1_113
*400 FILLER_1_125
*401 FILLER_1_137
*402 FILLER_1_149
*403 FILLER_1_15
*404 FILLER_1_161
*405 FILLER_1_167
*406 FILLER_1_169
*407 FILLER_1_181
*408 FILLER_1_193
*409 FILLER_1_205
*410 FILLER_1_217
*411 FILLER_1_223
*412 FILLER_1_225
*413 FILLER_1_237
*414 FILLER_1_249
*415 FILLER_1_261
*416 FILLER_1_27
*417 FILLER_1_273
*418 FILLER_1_279
*419 FILLER_1_281
*420 FILLER_1_293
*421 FILLER_1_3
*422 FILLER_1_305
*423 FILLER_1_317
*424 FILLER_1_325
*425 FILLER_1_337
*426 FILLER_1_39
*427 FILLER_1_51
*428 FILLER_1_55
*429 FILLER_1_57
*430 FILLER_1_69
*431 FILLER_1_81
*432 FILLER_1_93
*433 FILLER_2_107
*434 FILLER_2_114
*435 FILLER_2_126
*436 FILLER_2_138
*437 FILLER_2_141
*438 FILLER_2_145
*439 FILLER_2_149
*440 FILLER_2_15
*441 FILLER_2_153
*442 FILLER_2_162
*443 FILLER_2_166
*444 FILLER_2_184
*445 FILLER_2_209
*446 FILLER_2_221
*447 FILLER_2_235
*448 FILLER_2_247
*449 FILLER_2_251
*450 FILLER_2_253
*451 FILLER_2_261
*452 FILLER_2_269
*453 FILLER_2_27
*454 FILLER_2_273
*455 FILLER_2_285
*456 FILLER_2_29
*457 FILLER_2_297
*458 FILLER_2_3
*459 FILLER_2_305
*460 FILLER_2_309
*461 FILLER_2_321
*462 FILLER_2_329
*463 FILLER_2_37
*464 FILLER_2_42
*465 FILLER_2_54
*466 FILLER_2_60
*467 FILLER_2_64
*468 FILLER_2_76
*469 FILLER_2_80
*470 FILLER_2_85
*471 FILLER_2_89
*472 FILLER_2_93
*473 FILLER_3_105
*474 FILLER_3_111
*475 FILLER_3_113
*476 FILLER_3_121
*477 FILLER_3_127
*478 FILLER_3_139
*479 FILLER_3_15
*480 FILLER_3_151
*481 FILLER_3_163
*482 FILLER_3_167
*483 FILLER_3_169
*484 FILLER_3_181
*485 FILLER_3_193
*486 FILLER_3_205
*487 FILLER_3_213
*488 FILLER_3_218
*489 FILLER_3_225
*490 FILLER_3_237
*491 FILLER_3_249
*492 FILLER_3_261
*493 FILLER_3_27
*494 FILLER_3_273
*495 FILLER_3_279
*496 FILLER_3_281
*497 FILLER_3_293
*498 FILLER_3_3
*499 FILLER_3_305
*500 FILLER_3_317
*501 FILLER_3_325
*502 FILLER_3_337
*503 FILLER_3_39
*504 FILLER_3_51
*505 FILLER_3_55
*506 FILLER_3_57
*507 FILLER_3_69
*508 FILLER_3_81
*509 FILLER_3_93
*510 FILLER_4_109
*511 FILLER_4_121
*512 FILLER_4_133
*513 FILLER_4_139
*514 FILLER_4_141
*515 FILLER_4_15
*516 FILLER_4_153
*517 FILLER_4_165
*518 FILLER_4_177
*519 FILLER_4_189
*520 FILLER_4_195
*521 FILLER_4_197
*522 FILLER_4_203
*523 FILLER_4_215
*524 FILLER_4_227
*525 FILLER_4_233
*526 FILLER_4_237
*527 FILLER_4_245
*528 FILLER_4_249
*529 FILLER_4_253
*530 FILLER_4_265
*531 FILLER_4_27
*532 FILLER_4_277
*533 FILLER_4_289
*534 FILLER_4_29
*535 FILLER_4_3
*536 FILLER_4_301
*537 FILLER_4_307
*538 FILLER_4_309
*539 FILLER_4_321
*540 FILLER_4_329
*541 FILLER_4_41
*542 FILLER_4_53
*543 FILLER_4_65
*544 FILLER_4_77
*545 FILLER_4_83
*546 FILLER_4_85
*547 FILLER_4_97
*548 FILLER_5_107
*549 FILLER_5_111
*550 FILLER_5_113
*551 FILLER_5_125
*552 FILLER_5_137
*553 FILLER_5_149
*554 FILLER_5_15
*555 FILLER_5_155
*556 FILLER_5_167
*557 FILLER_5_169
*558 FILLER_5_181
*559 FILLER_5_193
*560 FILLER_5_205
*561 FILLER_5_217
*562 FILLER_5_222
*563 FILLER_5_225
*564 FILLER_5_237
*565 FILLER_5_249
*566 FILLER_5_261
*567 FILLER_5_27
*568 FILLER_5_273
*569 FILLER_5_279
*570 FILLER_5_281
*571 FILLER_5_293
*572 FILLER_5_3
*573 FILLER_5_305
*574 FILLER_5_317
*575 FILLER_5_325
*576 FILLER_5_337
*577 FILLER_5_39
*578 FILLER_5_51
*579 FILLER_5_55
*580 FILLER_5_57
*581 FILLER_5_69
*582 FILLER_5_77
*583 FILLER_5_83
*584 FILLER_5_95
*585 FILLER_6_100
*586 FILLER_6_112
*587 FILLER_6_124
*588 FILLER_6_136
*589 FILLER_6_141
*590 FILLER_6_15
*591 FILLER_6_153
*592 FILLER_6_161
*593 FILLER_6_169
*594 FILLER_6_181
*595 FILLER_6_193
*596 FILLER_6_197
*597 FILLER_6_209
*598 FILLER_6_224
*599 FILLER_6_236
*600 FILLER_6_248
*601 FILLER_6_253
*602 FILLER_6_265
*603 FILLER_6_27
*604 FILLER_6_277
*605 FILLER_6_289
*606 FILLER_6_29
*607 FILLER_6_3
*608 FILLER_6_301
*609 FILLER_6_307
*610 FILLER_6_309
*611 FILLER_6_321
*612 FILLER_6_41
*613 FILLER_6_53
*614 FILLER_6_62
*615 FILLER_6_69
*616 FILLER_6_74
*617 FILLER_6_82
*618 FILLER_6_88
*619 FILLER_7_103
*620 FILLER_7_107
*621 FILLER_7_111
*622 FILLER_7_113
*623 FILLER_7_125
*624 FILLER_7_137
*625 FILLER_7_149
*626 FILLER_7_15
*627 FILLER_7_161
*628 FILLER_7_167
*629 FILLER_7_169
*630 FILLER_7_181
*631 FILLER_7_193
*632 FILLER_7_205
*633 FILLER_7_217
*634 FILLER_7_223
*635 FILLER_7_225
*636 FILLER_7_231
*637 FILLER_7_243
*638 FILLER_7_255
*639 FILLER_7_267
*640 FILLER_7_27
*641 FILLER_7_279
*642 FILLER_7_281
*643 FILLER_7_293
*644 FILLER_7_297
*645 FILLER_7_3
*646 FILLER_7_301
*647 FILLER_7_313
*648 FILLER_7_321
*649 FILLER_7_326
*650 FILLER_7_337
*651 FILLER_7_39
*652 FILLER_7_48
*653 FILLER_7_57
*654 FILLER_7_63
*655 FILLER_7_85
*656 FILLER_8_107
*657 FILLER_8_117
*658 FILLER_8_128
*659 FILLER_8_137
*660 FILLER_8_141
*661 FILLER_8_147
*662 FILLER_8_15
*663 FILLER_8_155
*664 FILLER_8_160
*665 FILLER_8_177
*666 FILLER_8_181
*667 FILLER_8_185
*668 FILLER_8_189
*669 FILLER_8_195
*670 FILLER_8_197
*671 FILLER_8_206
*672 FILLER_8_212
*673 FILLER_8_226
*674 FILLER_8_238
*675 FILLER_8_248
*676 FILLER_8_256
*677 FILLER_8_268
*678 FILLER_8_27
*679 FILLER_8_278
*680 FILLER_8_29
*681 FILLER_8_290
*682 FILLER_8_3
*683 FILLER_8_302
*684 FILLER_8_309
*685 FILLER_8_321
*686 FILLER_8_33
*687 FILLER_8_37
*688 FILLER_8_49
*689 FILLER_8_55
*690 FILLER_8_59
*691 FILLER_8_71
*692 FILLER_8_76
*693 FILLER_8_85
*694 FILLER_8_93
*695 FILLER_9_105
*696 FILLER_9_111
*697 FILLER_9_113
*698 FILLER_9_125
*699 FILLER_9_137
*700 FILLER_9_149
*701 FILLER_9_15
*702 FILLER_9_161
*703 FILLER_9_167
*704 FILLER_9_169
*705 FILLER_9_181
*706 FILLER_9_193
*707 FILLER_9_205
*708 FILLER_9_217
*709 FILLER_9_223
*710 FILLER_9_225
*711 FILLER_9_230
*712 FILLER_9_238
*713 FILLER_9_244
*714 FILLER_9_252
*715 FILLER_9_259
*716 FILLER_9_27
*717 FILLER_9_271
*718 FILLER_9_277
*719 FILLER_9_281
*720 FILLER_9_285
*721 FILLER_9_291
*722 FILLER_9_3
*723 FILLER_9_303
*724 FILLER_9_315
*725 FILLER_9_327
*726 FILLER_9_337
*727 FILLER_9_39
*728 FILLER_9_51
*729 FILLER_9_55
*730 FILLER_9_57
*731 FILLER_9_69
*732 FILLER_9_81
*733 FILLER_9_93
*734 PHY_EDGE_ROW_0_Left_12
*735 PHY_EDGE_ROW_0_Right_0
*736 PHY_EDGE_ROW_10_Left_22
*737 PHY_EDGE_ROW_10_Right_10
*738 PHY_EDGE_ROW_11_Left_23
*739 PHY_EDGE_ROW_11_Right_11
*740 PHY_EDGE_ROW_1_Left_13
*741 PHY_EDGE_ROW_1_Right_1
*742 PHY_EDGE_ROW_2_Left_14
*743 PHY_EDGE_ROW_2_Right_2
*744 PHY_EDGE_ROW_3_Left_15
*745 PHY_EDGE_ROW_3_Right_3
*746 PHY_EDGE_ROW_4_Left_16
*747 PHY_EDGE_ROW_4_Right_4
*748 PHY_EDGE_ROW_5_Left_17
*749 PHY_EDGE_ROW_5_Right_5
*750 PHY_EDGE_ROW_6_Left_18
*751 PHY_EDGE_ROW_6_Right_6
*752 PHY_EDGE_ROW_7_Left_19
*753 PHY_EDGE_ROW_7_Right_7
*754 PHY_EDGE_ROW_8_Left_20
*755 PHY_EDGE_ROW_8_Right_8
*756 PHY_EDGE_ROW_9_Left_21
*757 PHY_EDGE_ROW_9_Right_9
*758 TAP_TAPCELL_ROW_0_24
*759 TAP_TAPCELL_ROW_0_25
*760 TAP_TAPCELL_ROW_0_26
*761 TAP_TAPCELL_ROW_0_27
*762 TAP_TAPCELL_ROW_0_28
*763 TAP_TAPCELL_ROW_0_29
*764 TAP_TAPCELL_ROW_0_30
*765 TAP_TAPCELL_ROW_0_31
*766 TAP_TAPCELL_ROW_0_32
*767 TAP_TAPCELL_ROW_0_33
*768 TAP_TAPCELL_ROW_0_34
*769 TAP_TAPCELL_ROW_0_35
*770 TAP_TAPCELL_ROW_10_90
*771 TAP_TAPCELL_ROW_10_91
*772 TAP_TAPCELL_ROW_10_92
*773 TAP_TAPCELL_ROW_10_93
*774 TAP_TAPCELL_ROW_10_94
*775 TAP_TAPCELL_ROW_10_95
*776 TAP_TAPCELL_ROW_11_100
*777 TAP_TAPCELL_ROW_11_101
*778 TAP_TAPCELL_ROW_11_102
*779 TAP_TAPCELL_ROW_11_103
*780 TAP_TAPCELL_ROW_11_104
*781 TAP_TAPCELL_ROW_11_105
*782 TAP_TAPCELL_ROW_11_106
*783 TAP_TAPCELL_ROW_11_107
*784 TAP_TAPCELL_ROW_11_96
*785 TAP_TAPCELL_ROW_11_97
*786 TAP_TAPCELL_ROW_11_98
*787 TAP_TAPCELL_ROW_11_99
*788 TAP_TAPCELL_ROW_1_36
*789 TAP_TAPCELL_ROW_1_37
*790 TAP_TAPCELL_ROW_1_38
*791 TAP_TAPCELL_ROW_1_39
*792 TAP_TAPCELL_ROW_1_40
*793 TAP_TAPCELL_ROW_1_41
*794 TAP_TAPCELL_ROW_2_42
*795 TAP_TAPCELL_ROW_2_43
*796 TAP_TAPCELL_ROW_2_44
*797 TAP_TAPCELL_ROW_2_45
*798 TAP_TAPCELL_ROW_2_46
*799 TAP_TAPCELL_ROW_2_47
*800 TAP_TAPCELL_ROW_3_48
*801 TAP_TAPCELL_ROW_3_49
*802 TAP_TAPCELL_ROW_3_50
*803 TAP_TAPCELL_ROW_3_51
*804 TAP_TAPCELL_ROW_3_52
*805 TAP_TAPCELL_ROW_3_53
*806 TAP_TAPCELL_ROW_4_54
*807 TAP_TAPCELL_ROW_4_55
*808 TAP_TAPCELL_ROW_4_56
*809 TAP_TAPCELL_ROW_4_57
*810 TAP_TAPCELL_ROW_4_58
*811 TAP_TAPCELL_ROW_4_59
*812 TAP_TAPCELL_ROW_5_60
*813 TAP_TAPCELL_ROW_5_61
*814 TAP_TAPCELL_ROW_5_62
*815 TAP_TAPCELL_ROW_5_63
*816 TAP_TAPCELL_ROW_5_64
*817 TAP_TAPCELL_ROW_5_65
*818 TAP_TAPCELL_ROW_6_66
*819 TAP_TAPCELL_ROW_6_67
*820 TAP_TAPCELL_ROW_6_68
*821 TAP_TAPCELL_ROW_6_69
*822 TAP_TAPCELL_ROW_6_70
*823 TAP_TAPCELL_ROW_6_71
*824 TAP_TAPCELL_ROW_7_72
*825 TAP_TAPCELL_ROW_7_73
*826 TAP_TAPCELL_ROW_7_74
*827 TAP_TAPCELL_ROW_7_75
*828 TAP_TAPCELL_ROW_7_76
*829 TAP_TAPCELL_ROW_7_77
*830 TAP_TAPCELL_ROW_8_78
*831 TAP_TAPCELL_ROW_8_79
*832 TAP_TAPCELL_ROW_8_80
*833 TAP_TAPCELL_ROW_8_81
*834 TAP_TAPCELL_ROW_8_82
*835 TAP_TAPCELL_ROW_8_83
*836 TAP_TAPCELL_ROW_9_84
*837 TAP_TAPCELL_ROW_9_85
*838 TAP_TAPCELL_ROW_9_86
*839 TAP_TAPCELL_ROW_9_87
*840 TAP_TAPCELL_ROW_9_88
*841 TAP_TAPCELL_ROW_9_89
*842 _00_
*843 _01_
*844 _02_
*845 _03_
*846 _04_
*847 _05_
*848 _06_
*849 _07_
*850 _08_
*851 _09_
*852 _10_
*853 _11_
*854 _12_
*855 _13_
*856 _14_
*857 _15_
*858 _16_
*859 _17_
*860 _18_
*861 _19_
*862 _20_
*863 _21_
*864 _22_
*865 _23_
*866 _24_
*867 _25_
*868 _26_
*869 _27_
*870 _28_
*871 _29_
*872 _30_
*873 _31_
*874 _32_
*875 _33_
*876 _34_
*877 _35_
*878 _36_
*879 _37_
*880 _38_
*881 _39_
*882 _40_
*883 _41_
*884 _42_
*885 _43_
*886 _44_
*887 _45_
*888 _46_
*889 _47_
*890 _48_
*891 _49_
*892 _50_
*893 _51_
*894 _52_
*895 _53_
*896 _54_
*897 _55_
*898 _56_
*899 _57_
*900 _58_
*901 _59_
*902 _60_
*903 _61_
*904 _62_
*905 _63_
*906 _64_
*907 _65_
*908 _66_
*909 _67_
*910 _68_
*911 _69_
*912 _70_
*913 _71_
*914 _72_
*915 _73_
*916 _74_
*917 _75_
*918 _76_
*919 _77_
*920 _78_
*921 _79_
*922 _80_
*923 _81_
*924 _82_
*925 _83_
*926 _84_
*927 _85_
*928 _86_
*929 _87_
*930 _88_
*931 output1
*932 output10
*933 output11
*934 output12
*935 output13
*936 output14
*937 output15
*938 output16
*939 output17
*940 output18
*941 output19
*942 output2
*943 output20
*944 output21
*945 output22
*946 output23
*947 output24
*948 output25
*949 output26
*950 output27
*951 output28
*952 output29
*953 output3
*954 output30
*955 output31
*956 output32
*957 output33
*958 output34
*959 output35
*960 output36
*961 output37
*962 output38
*963 output39
*964 output4
*965 output40
*966 output41
*967 output42
*968 output43
*969 output44
*970 output45
*971 output46
*972 output47
*973 output48
*974 output49
*975 output5
*976 output50
*977 output51
*978 output52
*979 output53
*980 output54
*981 output55
*982 output56
*983 output57
*984 output58
*985 output59
*986 output6
*987 output60
*988 output61
*989 output62
*990 output63
*991 output64
*992 output65
*993 output66
*994 output67
*995 output68
*996 output69
*997 output7
*998 output70
*999 output71
*1000 output72
*1001 output73
*1002 output74
*1003 output75
*1004 output76
*1005 output77
*1006 output78
*1007 output79
*1008 output8
*1009 output80
*1010 output81
*1011 output82
*1012 output83
*1013 output84
*1014 output85
*1015 output86
*1016 output87
*1017 output88
*1018 output89
*1019 output9

*PORTS
FrameData[0] I
FrameData[10] I
FrameData[11] I
FrameData[12] I
FrameData[13] I
FrameData[14] I
FrameData[15] I
FrameData[16] I
FrameData[17] I
FrameData[18] I
FrameData[19] I
FrameData[1] I
FrameData[20] I
FrameData[21] I
FrameData[22] I
FrameData[23] I
FrameData[24] I
FrameData[25] I
FrameData[26] I
FrameData[27] I
FrameData[28] I
FrameData[29] I
FrameData[2] I
FrameData[30] I
FrameData[31] I
FrameData[3] I
FrameData[4] I
FrameData[5] I
FrameData[6] I
FrameData[7] I
FrameData[8] I
FrameData[9] I
FrameData_O[0] O
FrameData_O[10] O
FrameData_O[11] O
FrameData_O[12] O
FrameData_O[13] O
FrameData_O[14] O
FrameData_O[15] O
FrameData_O[16] O
FrameData_O[17] O
FrameData_O[18] O
FrameData_O[19] O
FrameData_O[1] O
FrameData_O[20] O
FrameData_O[21] O
FrameData_O[22] O
FrameData_O[23] O
FrameData_O[24] O
FrameData_O[25] O
FrameData_O[26] O
FrameData_O[27] O
FrameData_O[28] O
FrameData_O[29] O
FrameData_O[2] O
FrameData_O[30] O
FrameData_O[31] O
FrameData_O[3] O
FrameData_O[4] O
FrameData_O[5] O
FrameData_O[6] O
FrameData_O[7] O
FrameData_O[8] O
FrameData_O[9] O
FrameStrobe[0] I
FrameStrobe[10] I
FrameStrobe[11] I
FrameStrobe[12] I
FrameStrobe[13] I
FrameStrobe[14] I
FrameStrobe[15] I
FrameStrobe[16] I
FrameStrobe[17] I
FrameStrobe[18] I
FrameStrobe[19] I
FrameStrobe[1] I
FrameStrobe[2] I
FrameStrobe[3] I
FrameStrobe[4] I
FrameStrobe[5] I
FrameStrobe[6] I
FrameStrobe[7] I
FrameStrobe[8] I
FrameStrobe[9] I
FrameStrobe_O[0] O
FrameStrobe_O[10] O
FrameStrobe_O[11] O
FrameStrobe_O[12] O
FrameStrobe_O[13] O
FrameStrobe_O[14] O
FrameStrobe_O[15] O
FrameStrobe_O[16] O
FrameStrobe_O[17] O
FrameStrobe_O[18] O
FrameStrobe_O[19] O
FrameStrobe_O[1] O
FrameStrobe_O[2] O
FrameStrobe_O[3] O
FrameStrobe_O[4] O
FrameStrobe_O[5] O
FrameStrobe_O[6] O
FrameStrobe_O[7] O
FrameStrobe_O[8] O
FrameStrobe_O[9] O
N1BEG[0] O
N1BEG[1] O
N1BEG[2] O
N1BEG[3] O
N2BEG[0] O
N2BEG[1] O
N2BEG[2] O
N2BEG[3] O
N2BEG[4] O
N2BEG[5] O
N2BEG[6] O
N2BEG[7] O
N2BEGb[0] O
N2BEGb[1] O
N2BEGb[2] O
N2BEGb[3] O
N2BEGb[4] O
N2BEGb[5] O
N2BEGb[6] O
N2BEGb[7] O
N4BEG[0] O
N4BEG[10] O
N4BEG[11] O
N4BEG[12] O
N4BEG[13] O
N4BEG[14] O
N4BEG[15] O
N4BEG[1] O
N4BEG[2] O
N4BEG[3] O
N4BEG[4] O
N4BEG[5] O
N4BEG[6] O
N4BEG[7] O
N4BEG[8] O
N4BEG[9] O
S1END[0] I
S1END[1] I
S1END[2] I
S1END[3] I
S2END[0] I
S2END[1] I
S2END[2] I
S2END[3] I
S2END[4] I
S2END[5] I
S2END[6] I
S2END[7] I
S2MID[0] I
S2MID[1] I
S2MID[2] I
S2MID[3] I
S2MID[4] I
S2MID[5] I
S2MID[6] I
S2MID[7] I
S4END[0] I
S4END[10] I
S4END[11] I
S4END[12] I
S4END[13] I
S4END[14] I
S4END[15] I
S4END[1] I
S4END[2] I
S4END[3] I
S4END[4] I
S4END[5] I
S4END[6] I
S4END[7] I
S4END[8] I
S4END[9] I
UserCLK I
UserCLKo O

*D_NET *1 0.00613148
*CONN
*P FrameData[0] I
*I *842:A I *D sky130_fd_sc_hd__buf_1
*CAP
1 FrameData[0] 0.000752229
2 *842:A 0.000283254
3 *1:11 0.00103548
4 *842:A *6:15 0.00163068
5 *842:A *27:15 0.00162899
6 *842:A *28:17 0.000317031
7 *1:11 *12:11 0.000314935
8 *1:11 *27:11 0.000168886
9 *1:11 *28:17 0
*RES
1 FrameData[0] *1:11 34.9307 
2 *1:11 *842:A 41.7257 
*END

*D_NET *2 0.0183551
*CONN
*P FrameData[10] I
*I *270:DIODE I *D sky130_fd_sc_hd__diode_2
*I *852:A I *D sky130_fd_sc_hd__buf_1
*CAP
1 FrameData[10] 0.00351668
2 *270:DIODE 0.000139078
3 *852:A 9.2215e-05
4 *2:9 0.00374798
5 *270:DIODE *285:DIODE 4.16667e-05
6 *270:DIODE *192:8 2.4754e-05
7 *270:DIODE *258:20 5.56356e-05
8 *852:A *281:DIODE 2.75733e-06
9 *852:A *3:25 1.86598e-05
10 *852:A *203:8 1.14452e-05
11 *852:A *258:18 9.47917e-06
12 *2:9 *3:17 0.000770754
13 *2:9 *4:11 0.000403868
14 *2:9 *5:17 0.0020846
15 *2:9 *11:13 0.000486141
16 *2:9 *31:15 0.00061347
17 *2:9 *32:17 0.00431555
18 *2:9 *67:15 0
19 *2:9 *82:25 0.000536647
20 *2:9 *83:21 0.00130287
21 *2:9 *203:8 0.000157979
22 *2:9 *258:18 2.29192e-05
*RES
1 FrameData[10] *2:9 28.6526 
2 *2:9 *852:A 39.2014 
3 *2:9 *270:DIODE 40.0507 
*END

*D_NET *3 0.020189
*CONN
*P FrameData[11] I
*I *853:A I *D sky130_fd_sc_hd__buf_1
*I *281:DIODE I *D sky130_fd_sc_hd__diode_2
*CAP
1 FrameData[11] 0.00419585
2 *853:A 0
3 *281:DIODE 0.000288341
4 *3:25 0.000782665
5 *3:17 0.00469017
6 *281:DIODE *66:7 0
7 *281:DIODE *201:10 0
8 *281:DIODE *205:8 0
9 *281:DIODE *247:22 0.000360915
10 *3:17 *4:11 0.00307467
11 *3:17 *5:17 0.000549725
12 *3:17 *7:15 0.00207955
13 *3:17 *8:11 0.000613433
14 *3:17 *9:17 0.00055389
15 *3:17 *14:21 0.000474104
16 *3:17 *84:11 0
17 *3:17 *153:15 0.000307205
18 *3:17 *156:11 0
19 *3:17 *186:6 0.000266907
20 *3:17 *220:10 0.000372578
21 *3:25 *4:24 0
22 *3:25 *203:8 6.66466e-05
23 *3:25 *214:8 6.66466e-05
24 *3:25 *221:16 0.000653474
25 *852:A *281:DIODE 2.75733e-06
26 *852:A *3:25 1.86598e-05
27 *2:9 *3:17 0.000770754
*RES
1 FrameData[11] *3:17 49.6466 
2 *3:17 *3:25 40.6057 
3 *3:25 *281:DIODE 42.8057 
4 *3:25 *853:A 38 
*END

*D_NET *4 0.0183176
*CONN
*P FrameData[12] I
*I *854:A I *D sky130_fd_sc_hd__buf_1
*I *292:DIODE I *D sky130_fd_sc_hd__diode_2
*CAP
1 FrameData[12] 0.00299855
2 *854:A 0
3 *292:DIODE 0
4 *4:24 0.000331546
5 *4:11 0.00333009
6 *4:11 *5:17 0.0071309
7 *4:11 *7:15 2.0074e-05
8 *4:11 *66:7 9.92884e-05
9 *4:11 *182:14 0.000241013
10 *4:11 *220:10 0.00016326
11 *4:11 *225:12 0.00022031
12 *4:24 *285:DIODE 7.1349e-05
13 *4:24 *31:15 0.000228001
14 *4:24 *66:7 0
15 *4:24 *214:8 4.6318e-06
16 *2:9 *4:11 0.000403868
17 *3:17 *4:11 0.00307467
18 *3:25 *4:24 0
*RES
1 FrameData[12] *4:11 45.1817 
2 *4:11 *292:DIODE 23 
3 *4:11 *4:24 35.1579 
4 *4:24 *854:A 23 
*END

*D_NET *5 0.0155242
*CONN
*P FrameData[13] I
*I *855:A I *D sky130_fd_sc_hd__buf_1
*I *291:DIODE I *D sky130_fd_sc_hd__diode_2
*CAP
1 FrameData[13] 0.00237864
2 *855:A 1.49804e-05
3 *291:DIODE 0.000140395
4 *5:17 0.00250405
5 *291:DIODE *8:13 5.79559e-05
6 *291:DIODE *8:32 0.000146822
7 *855:A *221:8 5.50106e-05
8 *855:A *247:12 5.50106e-05
9 *5:17 *6:11 0.000352168
10 *5:17 *7:15 5.39034e-05
11 *5:17 *83:21 0
12 *5:17 *225:8 0
13 *2:9 *5:17 0.0020846
14 *3:17 *5:17 0.000549725
15 *4:11 *5:17 0.0071309
*RES
1 FrameData[13] *5:17 44.786 
2 *5:17 *291:DIODE 40.0507 
3 *291:DIODE *855:A 46.6214 
*END

*D_NET *6 0.00673941
*CONN
*P FrameData[14] I
*I *856:A I *D sky130_fd_sc_hd__buf_1
*CAP
1 FrameData[14] 0.000663825
2 *856:A 0
3 *6:15 0.00102625
4 *6:11 0.00169007
5 *6:11 *7:15 0.000359194
6 *6:11 *11:11 0
7 *6:15 *27:15 0.000544589
8 *6:15 *28:17 0.000472633
9 *842:A *6:15 0.00163068
10 *5:17 *6:11 0.000352168
*RES
1 FrameData[14] *6:11 32.9896 
2 *6:11 *6:15 28.7514 
3 *6:15 *856:A 23 
*END

*D_NET *7 0.0115985
*CONN
*P FrameData[15] I
*I *857:A I *D sky130_fd_sc_hd__clkbuf_1
*CAP
1 FrameData[15] 0.00162693
2 *857:A 0
3 *7:21 0.00134929
4 *7:15 0.00297622
5 *7:15 *8:11 0.00123996
6 *7:15 *236:10 3.54739e-05
7 *7:21 *32:17 0.000104089
8 *7:21 *236:14 0.00175382
9 *3:17 *7:15 0.00207955
10 *4:11 *7:15 2.0074e-05
11 *5:17 *7:15 5.39034e-05
12 *6:11 *7:15 0.000359194
*RES
1 FrameData[15] *7:15 36.8326 
2 *7:15 *7:21 36.9364 
3 *7:21 *857:A 38 
*END

*D_NET *8 0.0161027
*CONN
*P FrameData[16] I
*I *858:A I *D sky130_fd_sc_hd__buf_1
*I *293:DIODE I *D sky130_fd_sc_hd__diode_2
*CAP
1 FrameData[16] 0.00379453
2 *858:A 0
3 *293:DIODE 0
4 *8:32 0.00026658
5 *8:13 0.000530047
6 *8:11 0.004058
7 *8:11 *906:A 0.000240364
8 *8:11 *9:15 0.000924066
9 *8:11 *10:11 0.000582936
10 *8:11 *82:25 0.000147535
11 *8:11 *156:11 0.000846486
12 *8:11 *157:25 0.00035703
13 *8:11 *158:15 1.79662e-05
14 *8:11 *158:25 0.000104572
15 *8:11 *159:21 0.000329591
16 *8:11 *160:13 0.000182935
17 *8:11 *182:10 0.000340413
18 *8:11 *238:6 0.00011961
19 *8:13 *31:15 0.000123677
20 *8:13 *247:12 0.000629206
21 *8:32 *83:21 2.8337e-05
22 *8:32 *221:8 0.00010018
23 *8:32 *225:8 9.28078e-06
24 *8:32 *247:12 0.00020207
25 *8:32 *247:20 0.000109143
26 *291:DIODE *8:13 5.79559e-05
27 *291:DIODE *8:32 0.000146822
28 *3:17 *8:11 0.000613433
29 *7:15 *8:11 0.00123996
*RES
1 FrameData[16] *8:11 47.0466 
2 *8:11 *8:13 6.815 
3 *8:13 *293:DIODE 23 
4 *8:13 *8:32 35.945 
5 *8:32 *858:A 23 
*END

*D_NET *9 0.0192681
*CONN
*P FrameData[17] I
*I *859:A I *D sky130_fd_sc_hd__buf_1
*CAP
1 FrameData[17] 0.00106128
2 *859:A 0
3 *9:23 0.000348223
4 *9:17 0.00339237
5 *9:15 0.00410543
6 *9:15 *10:11 0.00190426
7 *9:15 *231:12 2.33476e-05
8 *9:17 *884:A 0.00118323
9 *9:17 *14:21 0.00249436
10 *9:17 *153:15 0.000395494
11 *9:17 *186:6 0.00265422
12 *9:17 *241:8 0.000227907
13 *9:23 *269:10 0
14 *3:17 *9:17 0.00055389
15 *8:11 *9:15 0.000924066
*RES
1 FrameData[17] *9:15 33.1504 
2 *9:15 *9:17 84.4729 
3 *9:17 *9:23 35.4271 
4 *9:23 *859:A 23 
*END

*D_NET *10 0.0134021
*CONN
*P FrameData[18] I
*I *860:A I *D sky130_fd_sc_hd__buf_1
*I *294:DIODE I *D sky130_fd_sc_hd__diode_2
*CAP
1 FrameData[18] 0.00353693
2 *860:A 2.70172e-05
3 *294:DIODE 0
4 *10:11 0.00356395
5 *860:A *236:14 3.22879e-05
6 *10:11 *11:11 0.000156329
7 *10:11 *13:11 0.00114006
8 *10:11 *156:11 0.00168918
9 *10:11 *168:17 0.000318959
10 *10:11 *172:33 0.000435417
11 *10:11 *252:24 1.47833e-05
12 *8:11 *10:11 0.000582936
13 *9:15 *10:11 0.00190426
*RES
1 FrameData[18] *10:11 46.1966 
2 *10:11 *294:DIODE 23 
3 *10:11 *860:A 23.6214 
*END

*D_NET *11 0.0139882
*CONN
*P FrameData[19] I
*I *861:A I *D sky130_fd_sc_hd__buf_1
*CAP
1 FrameData[19] 0.000613887
2 *861:A 0
3 *11:13 0.00470176
4 *11:11 0.00531565
5 *11:11 *13:11 0.000156329
6 *11:13 *84:17 0.0012158
7 *11:13 *182:14 0.000324743
8 *11:13 *225:12 0.00101755
9 *2:9 *11:13 0.000486141
10 *6:11 *11:11 0
11 *10:11 *11:11 0.000156329
*RES
1 FrameData[19] *11:11 34.0633 
2 *11:11 *11:13 98.2893 
3 *11:13 *861:A 23 
*END

*D_NET *12 0.00996537
*CONN
*P FrameData[1] I
*I *843:A I *D sky130_fd_sc_hd__buf_1
*I *295:DIODE I *D sky130_fd_sc_hd__diode_2
*CAP
1 FrameData[1] 0.00234014
2 *843:A 8.37909e-06
3 *295:DIODE 0.000172551
4 *12:11 0.00250431
5 *295:DIODE *277:DIODE 0.000161287
6 *295:DIODE *851:A 5.67058e-05
7 *295:DIODE *32:17 0.000356724
8 *295:DIODE *221:8 0.000393161
9 *295:DIODE *247:12 0.000143655
10 *843:A *221:8 5.67058e-05
11 *843:A *247:12 3.22879e-05
12 *12:11 *23:11 0.00314728
13 *12:11 *26:17 0.000277243
14 *1:11 *12:11 0.000314935
*RES
1 FrameData[1] *12:11 41.6881 
2 *12:11 *295:DIODE 31.7207 
3 *295:DIODE *843:A 46.6214 
*END

*D_NET *13 0.0159738
*CONN
*P FrameData[20] I
*I *862:A I *D sky130_fd_sc_hd__buf_1
*I *296:DIODE I *D sky130_fd_sc_hd__diode_2
*CAP
1 FrameData[20] 0.00398721
2 *862:A 1.89204e-05
3 *296:DIODE 0
4 *13:11 0.00400613
5 *862:A *160:13 5.70419e-05
6 *862:A *162:23 9.84851e-05
7 *13:11 *919:A 0
8 *13:11 *14:19 0.002251
9 *13:11 *22:9 4.36547e-05
10 *13:11 *148:15 0.00100134
11 *13:11 *156:11 0.000100201
12 *13:11 *157:15 0.000130721
13 *13:11 *168:17 0.00272641
14 *13:11 *169:19 0.000112604
15 *13:11 *172:33 0.000143735
16 *10:11 *13:11 0.00114006
17 *11:11 *13:11 0.000156329
*RES
1 FrameData[20] *13:11 44.435 
2 *13:11 *296:DIODE 23 
3 *13:11 *862:A 24.0979 
*END

*D_NET *14 0.0178588
*CONN
*P FrameData[21] I
*I *863:A I *D sky130_fd_sc_hd__buf_1
*CAP
1 FrameData[21] 0.00232921
2 *863:A 0
3 *14:21 0.000333683
4 *14:19 0.00266289
5 *14:19 *15:9 0.0037991
6 *14:19 *141:17 0.000295197
7 *14:19 *148:15 4.83511e-05
8 *14:19 *148:21 3.07067e-05
9 *14:19 *149:33 0.000415074
10 *14:19 *160:19 0.000161712
11 *14:19 *172:33 7.07867e-05
12 *14:21 *153:15 0.00249267
13 *3:17 *14:21 0.000474104
14 *9:17 *14:21 0.00249436
15 *13:11 *14:19 0.002251
*RES
1 FrameData[21] *14:19 42.2843 
2 *14:19 *14:21 27.3014 
3 *14:21 *863:A 23 
*END

*D_NET *15 0.0261096
*CONN
*P FrameData[22] I
*I *864:A I *D sky130_fd_sc_hd__clkbuf_1
*I *297:DIODE I *D sky130_fd_sc_hd__diode_2
*CAP
1 FrameData[22] 0.00622735
2 *864:A 1.88371e-05
3 *297:DIODE 5.60619e-05
4 *15:9 0.00626457
5 *297:DIODE *193:26 9.8203e-05
6 *297:DIODE *215:16 4.10902e-05
7 *864:A *193:26 3.34698e-05
8 *864:A *215:22 5.64796e-05
9 *15:9 *16:15 0.0020119
10 *15:9 *17:11 0.000956553
11 *15:9 *19:9 0
12 *15:9 *148:15 0.00421606
13 *15:9 *149:33 0.00153171
14 *15:9 *168:17 0.00014427
15 *15:9 *188:14 0.000100139
16 *15:9 *193:26 8.77861e-05
17 *15:9 *221:20 8.63453e-05
18 *15:9 *224:14 0.000279489
19 *15:9 *251:20 0.000100139
20 *14:19 *15:9 0.0037991
*RES
1 FrameData[22] *15:9 35.9001 
2 *15:9 *297:DIODE 39.0979 
3 *297:DIODE *864:A 46.9529 
*END

*D_NET *16 0.0200638
*CONN
*P FrameData[23] I
*I *298:DIODE I *D sky130_fd_sc_hd__diode_2
*I *865:A I *D sky130_fd_sc_hd__buf_1
*CAP
1 FrameData[23] 0.00343749
2 *298:DIODE 4.21236e-05
3 *865:A 0
4 *16:15 0.00347961
5 *298:DIODE *175:23 0.000137651