*SPEF "ieee 1481-1999"
*DESIGN "S_term_DSP"
*DATE "08:52:15 Monday February 24, 2025"
*VENDOR "The OpenROAD Project"
*PROGRAM "OpenROAD"
*VERSION "87af90f72f3f9be1fdfa1d886f0dd8d8b8f34694"
*DESIGN_FLOW "NAME_SCOPE LOCAL" "PIN_CAP NONE"
*DIVIDER /
*DELIMITER :
*BUS_DELIMITER []
*T_UNIT 1 NS
*C_UNIT 1 PF
*R_UNIT 1 OHM
*L_UNIT 1 HENRY

*NAME_MAP
*1 FrameData[0]
*2 FrameData[10]
*3 FrameData[11]
*4 FrameData[12]
*5 FrameData[13]
*6 FrameData[14]
*7 FrameData[15]
*8 FrameData[16]
*9 FrameData[17]
*10 FrameData[18]
*11 FrameData[19]
*12 FrameData[1]
*13 FrameData[20]
*14 FrameData[21]
*15 FrameData[22]
*16 FrameData[23]
*17 FrameData[24]
*18 FrameData[25]
*19 FrameData[26]
*20 FrameData[27]
*21 FrameData[28]
*22 FrameData[29]
*23 FrameData[2]
*24 FrameData[30]
*25 FrameData[31]
*26 FrameData[3]
*27 FrameData[4]
*28 FrameData[5]
*29 FrameData[6]
*30 FrameData[7]
*31 FrameData[8]
*32 FrameData[9]
*33 FrameData_O[0]
*34 FrameData_O[10]
*35 FrameData_O[11]
*36 FrameData_O[12]
*37 FrameData_O[13]
*38 FrameData_O[14]
*39 FrameData_O[15]
*40 FrameData_O[16]
*41 FrameData_O[17]
*42 FrameData_O[18]
*43 FrameData_O[19]
*44 FrameData_O[1]
*45 FrameData_O[20]
*46 FrameData_O[21]
*47 FrameData_O[22]
*48 FrameData_O[23]
*49 FrameData_O[24]
*50 FrameData_O[25]
*51 FrameData_O[26]
*52 FrameData_O[27]
*53 FrameData_O[28]
*54 FrameData_O[29]
*55 FrameData_O[2]
*56 FrameData_O[30]
*57 FrameData_O[31]
*58 FrameData_O[3]
*59 FrameData_O[4]
*60 FrameData_O[5]
*61 FrameData_O[6]
*62 FrameData_O[7]
*63 FrameData_O[8]
*64 FrameData_O[9]
*65 FrameStrobe[0]
*66 FrameStrobe[10]
*67 FrameStrobe[11]
*68 FrameStrobe[12]
*69 FrameStrobe[13]
*70 FrameStrobe[14]
*71 FrameStrobe[15]
*72 FrameStrobe[16]
*73 FrameStrobe[17]
*74 FrameStrobe[18]
*75 FrameStrobe[19]
*76 FrameStrobe[1]
*77 FrameStrobe[2]
*78 FrameStrobe[3]
*79 FrameStrobe[4]
*80 FrameStrobe[5]
*81 FrameStrobe[6]
*82 FrameStrobe[7]
*83 FrameStrobe[8]
*84 FrameStrobe[9]
*85 FrameStrobe_O[0]
*86 FrameStrobe_O[10]
*87 FrameStrobe_O[11]
*88 FrameStrobe_O[12]
*89 FrameStrobe_O[13]
*90 FrameStrobe_O[14]
*91 FrameStrobe_O[15]
*92 FrameStrobe_O[16]
*93 FrameStrobe_O[17]
*94 FrameStrobe_O[18]
*95 FrameStrobe_O[19]
*96 FrameStrobe_O[1]
*97 FrameStrobe_O[2]
*98 FrameStrobe_O[3]
*99 FrameStrobe_O[4]
*100 FrameStrobe_O[5]
*101 FrameStrobe_O[6]
*102 FrameStrobe_O[7]
*103 FrameStrobe_O[8]
*104 FrameStrobe_O[9]
*105 N1BEG[0]
*106 N1BEG[1]
*107 N1BEG[2]
*108 N1BEG[3]
*109 N2BEG[0]
*110 N2BEG[1]
*111 N2BEG[2]
*112 N2BEG[3]
*113 N2BEG[4]
*114 N2BEG[5]
*115 N2BEG[6]
*116 N2BEG[7]
*117 N2BEGb[0]
*118 N2BEGb[1]
*119 N2BEGb[2]
*120 N2BEGb[3]
*121 N2BEGb[4]
*122 N2BEGb[5]
*123 N2BEGb[6]
*124 N2BEGb[7]
*125 N4BEG[0]
*126 N4BEG[10]
*127 N4BEG[11]
*128 N4BEG[12]
*129 N4BEG[13]
*130 N4BEG[14]
*131 N4BEG[15]
*132 N4BEG[1]
*133 N4BEG[2]
*134 N4BEG[3]
*135 N4BEG[4]
*136 N4BEG[5]
*137 N4BEG[6]
*138 N4BEG[7]
*139 N4BEG[8]
*140 N4BEG[9]
*141 NN4BEG[0]
*142 NN4BEG[10]
*143 NN4BEG[11]
*144 NN4BEG[12]
*145 NN4BEG[13]
*146 NN4BEG[14]
*147 NN4BEG[15]
*148 NN4BEG[1]
*149 NN4BEG[2]
*150 NN4BEG[3]
*151 NN4BEG[4]
*152 NN4BEG[5]
*153 NN4BEG[6]
*154 NN4BEG[7]
*155 NN4BEG[8]
*156 NN4BEG[9]
*157 S1END[0]
*158 S1END[1]
*159 S1END[2]
*160 S1END[3]
*161 S2END[0]
*162 S2END[1]
*163 S2END[2]
*164 S2END[3]
*165 S2END[4]
*166 S2END[5]
*167 S2END[6]
*168 S2END[7]
*169 S2MID[0]
*170 S2MID[1]
*171 S2MID[2]
*172 S2MID[3]
*173 S2MID[4]
*174 S2MID[5]
*175 S2MID[6]
*176 S2MID[7]
*177 S4END[0]
*178 S4END[10]
*179 S4END[11]
*180 S4END[12]
*181 S4END[13]
*182 S4END[14]
*183 S4END[15]
*184 S4END[1]
*185 S4END[2]
*186 S4END[3]
*187 S4END[4]
*188 S4END[5]
*189 S4END[6]
*190 S4END[7]
*191 S4END[8]
*192 S4END[9]
*193 SS4END[0]
*194 SS4END[10]
*195 SS4END[11]
*196 SS4END[12]
*197 SS4END[13]
*198 SS4END[14]
*199 SS4END[15]
*200 SS4END[1]
*201 SS4END[2]
*202 SS4END[3]
*203 SS4END[4]
*204 SS4END[5]
*205 SS4END[6]
*206 SS4END[7]
*207 SS4END[8]
*208 SS4END[9]
*209 UserCLK
*210 UserCLKo
*213 net1
*214 net10
*215 net100
*216 net101
*217 net102
*218 net103
*219 net104
*220 net105
*221 net11
*222 net12
*223 net13
*224 net14
*225 net15
*226 net16
*227 net17
*228 net18
*229 net19
*230 net2
*231 net20
*232 net21
*233 net22
*234 net23
*235 net24
*236 net25
*237 net26
*238 net27
*239 net28
*240 net29
*241 net3
*242 net30
*243 net31
*244 net32
*245 net33
*246 net34
*247 net35
*248 net36
*249 net37
*250 net38
*251 net39
*252 net4
*253 net40
*254 net41
*255 net42
*256 net43
*257 net44
*258 net45
*259 net46
*260 net47
*261 net48
*262 net49
*263 net5
*264 net50
*265 net51
*266 net52
*267 net53
*268 net54
*269 net55
*270 net56
*271 net57
*272 net58
*273 net59
*274 net6
*275 net60
*276 net61
*277 net62
*278 net63
*279 net64
*280 net65
*281 net66
*282 net67
*283 net68
*284 net69
*285 net7
*286 net70
*287 net71
*288 net72
*289 net73
*290 net74
*291 net75
*292 net76
*293 net77
*294 net78
*295 net79
*296 net8
*297 net80
*298 net81
*299 net82
*300 net83
*301 net84
*302 net85
*303 net86
*304 net87
*305 net88
*306 net89
*307 net9
*308 net90
*309 net91
*310 net92
*311 net93
*312 net94
*313 net95
*314 net96
*315 net97
*316 net98
*317 net99
*318 ANTENNA_1
*319 ANTENNA_10
*320 ANTENNA_11
*321 ANTENNA_12
*322 ANTENNA_13
*323 ANTENNA_14
*324 ANTENNA_15
*325 ANTENNA_16
*326 ANTENNA_17
*327 ANTENNA_18
*328 ANTENNA_19
*329 ANTENNA_2
*330 ANTENNA_20
*331 ANTENNA_21
*332 ANTENNA_22
*333 ANTENNA_23
*334 ANTENNA_24
*335 ANTENNA_25
*336 ANTENNA_26
*337 ANTENNA_27
*338 ANTENNA_28
*339 ANTENNA_29
*340 ANTENNA_3
*341 ANTENNA_30
*342 ANTENNA_31
*343 ANTENNA_32
*344 ANTENNA_33
*345 ANTENNA_34
*346 ANTENNA_4
*347 ANTENNA_5
*348 ANTENNA_6
*349 ANTENNA_7
*350 ANTENNA_8
*351 ANTENNA_9
*352 FILLER_0_109
*353 FILLER_0_113
*354 FILLER_0_125
*355 FILLER_0_137
*356 FILLER_0_141
*357 FILLER_0_15
*358 FILLER_0_153
*359 FILLER_0_165
*360 FILLER_0_169
*361 FILLER_0_181
*362 FILLER_0_193
*363 FILLER_0_197
*364 FILLER_0_209
*365 FILLER_0_221
*366 FILLER_0_225
*367 FILLER_0_237
*368 FILLER_0_249
*369 FILLER_0_253
*370 FILLER_0_265
*371 FILLER_0_27
*372 FILLER_0_277
*373 FILLER_0_281
*374 FILLER_0_29
*375 FILLER_0_293
*376 FILLER_0_3
*377 FILLER_0_305
*378 FILLER_0_309
*379 FILLER_0_321
*380 FILLER_0_333
*381 FILLER_0_337
*382 FILLER_0_349
*383 FILLER_0_361
*384 FILLER_0_365
*385 FILLER_0_377
*386 FILLER_0_389
*387 FILLER_0_393
*388 FILLER_0_405
*389 FILLER_0_41
*390 FILLER_0_417
*391 FILLER_0_421
*392 FILLER_0_433
*393 FILLER_0_441
*394 FILLER_0_449
*395 FILLER_0_53
*396 FILLER_0_57
*397 FILLER_0_69
*398 FILLER_0_81
*399 FILLER_0_85
*400 FILLER_0_97
*401 FILLER_10_102
*402 FILLER_10_114
*403 FILLER_10_120
*404 FILLER_10_126
*405 FILLER_10_138
*406 FILLER_10_145
*407 FILLER_10_15
*408 FILLER_10_171
*409 FILLER_10_180
*410 FILLER_10_189
*411 FILLER_10_195
*412 FILLER_10_197
*413 FILLER_10_205
*414 FILLER_10_209
*415 FILLER_10_218
*416 FILLER_10_226
*417 FILLER_10_235
*418 FILLER_10_258
*419 FILLER_10_27
*420 FILLER_10_270
*421 FILLER_10_276
*422 FILLER_10_282
*423 FILLER_10_286
*424 FILLER_10_29
*425 FILLER_10_298
*426 FILLER_10_3
*427 FILLER_10_307
*428 FILLER_10_309
*429 FILLER_10_313
*430 FILLER_10_317
*431 FILLER_10_329
*432 FILLER_10_341
*433 FILLER_10_353
*434 FILLER_10_361
*435 FILLER_10_365
*436 FILLER_10_377
*437 FILLER_10_391
*438 FILLER_10_399
*439 FILLER_10_41
*440 FILLER_10_418
*441 FILLER_10_425
*442 FILLER_10_437
*443 FILLER_10_445
*444 FILLER_10_49
*445 FILLER_10_54
*446 FILLER_10_60
*447 FILLER_10_66
*448 FILLER_10_78
*449 FILLER_10_85
*450 FILLER_10_96
*451 FILLER_11_113
*452 FILLER_11_141
*453 FILLER_11_15
*454 FILLER_11_169
*455 FILLER_11_197
*456 FILLER_11_208
*457 FILLER_11_220
*458 FILLER_11_225
*459 FILLER_11_237
*460 FILLER_11_249
*461 FILLER_11_253
*462 FILLER_11_265
*463 FILLER_11_27
*464 FILLER_11_277
*465 FILLER_11_281
*466 FILLER_11_29
*467 FILLER_11_293
*468 FILLER_11_3
*469 FILLER_11_305
*470 FILLER_11_309
*471 FILLER_11_321
*472 FILLER_11_333
*473 FILLER_11_337
*474 FILLER_11_349
*475 FILLER_11_357
*476 FILLER_11_362
*477 FILLER_11_389
*478 FILLER_11_41
*479 FILLER_11_417
*480 FILLER_11_429
*481 FILLER_11_437
*482 FILLER_11_449
*483 FILLER_11_57
*484 FILLER_11_85
*485 FILLER_1_108
*486 FILLER_1_113
*487 FILLER_1_125
*488 FILLER_1_137
*489 FILLER_1_147
*490 FILLER_1_15
*491 FILLER_1_159
*492 FILLER_1_167
*493 FILLER_1_175
*494 FILLER_1_186
*495 FILLER_1_198
*496 FILLER_1_204
*497 FILLER_1_218
*498 FILLER_1_225
*499 FILLER_1_237
*500 FILLER_1_245
*501 FILLER_1_251
*502 FILLER_1_259
*503 FILLER_1_266
*504 FILLER_1_27
*505 FILLER_1_278
*506 FILLER_1_281
*507 FILLER_1_294
*508 FILLER_1_3
*509 FILLER_1_301
*510 FILLER_1_313
*511 FILLER_1_321
*512 FILLER_1_327
*513 FILLER_1_335
*514 FILLER_1_337
*515 FILLER_1_349
*516 FILLER_1_361
*517 FILLER_1_373
*518 FILLER_1_385
*519 FILLER_1_39
*520 FILLER_1_391
*521 FILLER_1_393
*522 FILLER_1_405
*523 FILLER_1_417
*524 FILLER_1_429
*525 FILLER_1_441
*526 FILLER_1_447
*527 FILLER_1_449
*528 FILLER_1_51
*529 FILLER_1_55
*530 FILLER_1_57
*531 FILLER_1_69
*532 FILLER_1_81
*533 FILLER_1_89
*534 FILLER_1_96
*535 FILLER_2_109
*536 FILLER_2_121
*537 FILLER_2_133
*538 FILLER_2_139
*539 FILLER_2_141
*540 FILLER_2_15
*541 FILLER_2_153
*542 FILLER_2_165
*543 FILLER_2_173
*544 FILLER_2_180
*545 FILLER_2_184
*546 FILLER_2_190
*547 FILLER_2_197
*548 FILLER_2_209
*549 FILLER_2_221
*550 FILLER_2_233
*551 FILLER_2_240
*552 FILLER_2_253
*553 FILLER_2_257
*554 FILLER_2_263
*555 FILLER_2_27
*556 FILLER_2_275
*557 FILLER_2_287
*558 FILLER_2_29
*559 FILLER_2_299
*560 FILLER_2_3
*561 FILLER_2_307
*562 FILLER_2_309
*563 FILLER_2_321
*564 FILLER_2_333
*565 FILLER_2_345
*566 FILLER_2_357
*567 FILLER_2_363
*568 FILLER_2_368
*569 FILLER_2_380
*570 FILLER_2_392
*571 FILLER_2_404
*572 FILLER_2_41
*573 FILLER_2_416
*574 FILLER_2_421
*575 FILLER_2_433
*576 FILLER_2_445
*577 FILLER_2_453
*578 FILLER_2_53
*579 FILLER_2_65
*580 FILLER_2_77
*581 FILLER_2_83
*582 FILLER_2_85
*583 FILLER_2_97
*584 FILLER_3_105
*585 FILLER_3_111
*586 FILLER_3_113
*587 FILLER_3_125
*588 FILLER_3_137
*589 FILLER_3_149
*590 FILLER_3_15
*591 FILLER_3_163
*592 FILLER_3_167
*593 FILLER_3_169
*594 FILLER_3_181
*595 FILLER_3_193
*596 FILLER_3_205
*597 FILLER_3_217
*598 FILLER_3_223
*599 FILLER_3_230
*600 FILLER_3_239
*601 FILLER_3_251
*602 FILLER_3_263
*603 FILLER_3_27
*604 FILLER_3_270
*605 FILLER_3_278
*606 FILLER_3_281
*607 FILLER_3_293
*608 FILLER_3_3
*609 FILLER_3_305
*610 FILLER_3_317
*611 FILLER_3_329
*612 FILLER_3_335
*613 FILLER_3_337
*614 FILLER_3_349
*615 FILLER_3_361
*616 FILLER_3_372
*617 FILLER_3_384
*618 FILLER_3_39
*619 FILLER_3_393
*620 FILLER_3_405
*621 FILLER_3_417
*622 FILLER_3_429
*623 FILLER_3_433
*624 FILLER_3_445
*625 FILLER_3_449
*626 FILLER_3_453
*627 FILLER_3_51
*628 FILLER_3_55
*629 FILLER_3_57
*630 FILLER_3_69
*631 FILLER_3_81
*632 FILLER_3_93
*633 FILLER_4_100
*634 FILLER_4_112
*635 FILLER_4_124
*636 FILLER_4_136
*637 FILLER_4_141
*638 FILLER_4_15
*639 FILLER_4_153
*640 FILLER_4_165
*641 FILLER_4_177
*642 FILLER_4_189
*643 FILLER_4_195
*644 FILLER_4_197
*645 FILLER_4_209
*646 FILLER_4_221
*647 FILLER_4_229
*648 FILLER_4_237
*649 FILLER_4_249
*650 FILLER_4_253
*651 FILLER_4_265
*652 FILLER_4_27
*653 FILLER_4_277
*654 FILLER_4_289
*655 FILLER_4_29
*656 FILLER_4_3
*657 FILLER_4_301
*658 FILLER_4_307
*659 FILLER_4_309
*660 FILLER_4_321
*661 FILLER_4_327
*662 FILLER_4_331
*663 FILLER_4_337
*664 FILLER_4_342
*665 FILLER_4_350
*666 FILLER_4_355
*667 FILLER_4_363
*668 FILLER_4_365
*669 FILLER_4_377
*670 FILLER_4_383
*671 FILLER_4_387
*672 FILLER_4_399
*673 FILLER_4_41
*674 FILLER_4_410
*675 FILLER_4_418
*676 FILLER_4_421
*677 FILLER_4_433
*678 FILLER_4_445
*679 FILLER_4_453
*680 FILLER_4_53
*681 FILLER_4_65
*682 FILLER_4_77
*683 FILLER_4_83
*684 FILLER_4_88
*685 FILLER_5_100
*686 FILLER_5_113
*687 FILLER_5_125
*688 FILLER_5_131
*689 FILLER_5_143
*690 FILLER_5_15
*691 FILLER_5_155
*692 FILLER_5_167
*693 FILLER_5_169
*694 FILLER_5_181
*695 FILLER_5_193
*696 FILLER_5_205
*697 FILLER_5_213
*698 FILLER_5_221
*699 FILLER_5_225
*700 FILLER_5_237
*701 FILLER_5_249
*702 FILLER_5_253
*703 FILLER_5_257
*704 FILLER_5_269
*705 FILLER_5_27
*706 FILLER_5_277
*707 FILLER_5_281
*708 FILLER_5_285
*709 FILLER_5_297
*710 FILLER_5_3
*711 FILLER_5_305
*712 FILLER_5_311
*713 FILLER_5_323
*714 FILLER_5_335
*715 FILLER_5_337
*716 FILLER_5_349
*717 FILLER_5_361
*718 FILLER_5_373
*719 FILLER_5_385
*720 FILLER_5_39
*721 FILLER_5_391
*722 FILLER_5_393
*723 FILLER_5_405
*724 FILLER_5_417
*725 FILLER_5_429
*726 FILLER_5_441
*727 FILLER_5_447
*728 FILLER_5_449
*729 FILLER_5_453
*730 FILLER_5_51
*731 FILLER_5_55
*732 FILLER_5_57
*733 FILLER_5_69
*734 FILLER_5_81
*735 FILLER_5_93
*736 FILLER_6_112
*737 FILLER_6_124
*738 FILLER_6_136
*739 FILLER_6_141
*740 FILLER_6_15
*741 FILLER_6_153
*742 FILLER_6_165
*743 FILLER_6_177
*744 FILLER_6_189
*745 FILLER_6_195
*746 FILLER_6_197
*747 FILLER_6_209
*748 FILLER_6_221
*749 FILLER_6_230
*750 FILLER_6_242
*751 FILLER_6_250
*752 FILLER_6_253
*753 FILLER_6_265
*754 FILLER_6_27
*755 FILLER_6_273
*756 FILLER_6_278
*757 FILLER_6_29
*758 FILLER_6_290
*759 FILLER_6_3
*760 FILLER_6_302
*761 FILLER_6_309
*762 FILLER_6_321
*763 FILLER_6_333
*764 FILLER_6_345
*765 FILLER_6_357
*766 FILLER_6_363
*767 FILLER_6_365
*768 FILLER_6_37
*769 FILLER_6_377
*770 FILLER_6_389
*771 FILLER_6_401
*772 FILLER_6_413
*773 FILLER_6_419
*774 FILLER_6_421
*775 FILLER_6_43
*776 FILLER_6_433
*777 FILLER_6_445
*778 FILLER_6_453
*779 FILLER_6_55
*780 FILLER_6_67
*781 FILLER_6_79
*782 FILLER_6_83
*783 FILLER_6_85
*784 FILLER_6_97
*785 FILLER_7_105
*786 FILLER_7_111
*787 FILLER_7_113
*788 FILLER_7_119
*789 FILLER_7_128
*790 FILLER_7_140
*791 FILLER_7_15
*792 FILLER_7_152
*793 FILLER_7_163
*794 FILLER_7_167
*795 FILLER_7_169
*796 FILLER_7_181
*797 FILLER_7_193
*798 FILLER_7_200
*799 FILLER_7_212
*800 FILLER_7_225
*801 FILLER_7_237
*802 FILLER_7_249
*803 FILLER_7_261
*804 FILLER_7_27
*805 FILLER_7_273
*806 FILLER_7_279
*807 FILLER_7_281
*808 FILLER_7_293
*809 FILLER_7_3
*810 FILLER_7_305
*811 FILLER_7_317
*812 FILLER_7_329
*813 FILLER_7_335
*814 FILLER_7_337
*815 FILLER_7_349
*816 FILLER_7_361
*817 FILLER_7_373
*818 FILLER_7_388
*819 FILLER_7_39
*820 FILLER_7_393
*821 FILLER_7_405
*822 FILLER_7_417
*823 FILLER_7_429
*824 FILLER_7_441
*825 FILLER_7_447
*826 FILLER_7_449
*827 FILLER_7_453
*828 FILLER_7_51
*829 FILLER_7_55
*830 FILLER_7_57
*831 FILLER_7_69
*832 FILLER_7_75
*833 FILLER_7_83
*834 FILLER_7_88
*835 FILLER_7_94
*836 FILLER_7_99
*837 FILLER_8_107
*838 FILLER_8_119
*839 FILLER_8_134
*840 FILLER_8_141
*841 FILLER_8_15
*842 FILLER_8_153
*843 FILLER_8_165
*844 FILLER_8_177
*845 FILLER_8_189
*846 FILLER_8_195
*847 FILLER_8_197
*848 FILLER_8_203
*849 FILLER_8_207
*850 FILLER_8_219
*851 FILLER_8_227
*852 FILLER_8_232
*853 FILLER_8_244
*854 FILLER_8_258
*855 FILLER_8_27
*856 FILLER_8_270
*857 FILLER_8_274
*858 FILLER_8_280
*859 FILLER_8_29
*860 FILLER_8_292
*861 FILLER_8_3
*862 FILLER_8_304
*863 FILLER_8_309
*864 FILLER_8_321
*865 FILLER_8_333
*866 FILLER_8_345
*867 FILLER_8_35
*868 FILLER_8_350
*869 FILLER_8_362
*870 FILLER_8_368
*871 FILLER_8_380
*872 FILLER_8_392
*873 FILLER_8_404
*874 FILLER_8_416
*875 FILLER_8_421
*876 FILLER_8_429
*877 FILLER_8_433
*878 FILLER_8_445
*879 FILLER_8_453
*880 FILLER_8_47
*881 FILLER_8_53
*882 FILLER_8_57
*883 FILLER_8_62
*884 FILLER_8_67
*885 FILLER_8_76
*886 FILLER_8_85
*887 FILLER_8_91
*888 FILLER_8_95
*889 FILLER_9_105
*890 FILLER_9_111
*891 FILLER_9_113
*892 FILLER_9_121
*893 FILLER_9_128
*894 FILLER_9_140
*895 FILLER_9_148
*896 FILLER_9_15
*897 FILLER_9_154
*898 FILLER_9_158
*899 FILLER_9_164
*900 FILLER_9_169
*901 FILLER_9_181
*902 FILLER_9_193
*903 FILLER_9_205
*904 FILLER_9_217
*905 FILLER_9_223
*906 FILLER_9_228
*907 FILLER_9_240
*908 FILLER_9_252
*909 FILLER_9_263
*910 FILLER_9_27
*911 FILLER_9_275
*912 FILLER_9_279
*913 FILLER_9_281
*914 FILLER_9_293
*915 FILLER_9_3
*916 FILLER_9_305
*917 FILLER_9_317
*918 FILLER_9_324
*919 FILLER_9_330
*920 FILLER_9_337
*921 FILLER_9_343
*922 FILLER_9_355
*923 FILLER_9_367
*924 FILLER_9_373
*925 FILLER_9_385
*926 FILLER_9_39
*927 FILLER_9_391
*928 FILLER_9_393
*929 FILLER_9_405
*930 FILLER_9_410
*931 FILLER_9_422
*932 FILLER_9_434
*933 FILLER_9_446
*934 FILLER_9_449
*935 FILLER_9_453
*936 FILLER_9_47
*937 FILLER_9_53
*938 FILLER_9_57
*939 FILLER_9_69
*940 FILLER_9_81
*941 FILLER_9_93
*942 PHY_EDGE_ROW_0_Left_12
*943 PHY_EDGE_ROW_0_Right_0
*944 PHY_EDGE_ROW_10_Left_22
*945 PHY_EDGE_ROW_10_Right_10
*946 PHY_EDGE_ROW_11_Left_23
*947 PHY_EDGE_ROW_11_Right_11
*948 PHY_EDGE_ROW_1_Left_13
*949 PHY_EDGE_ROW_1_Right_1
*950 PHY_EDGE_ROW_2_Left_14
*951 PHY_EDGE_ROW_2_Right_2
*952 PHY_EDGE_ROW_3_Left_15
*953 PHY_EDGE_ROW_3_Right_3
*954 PHY_EDGE_ROW_4_Left_16
*955 PHY_EDGE_ROW_4_Right_4
*956 PHY_EDGE_ROW_5_Left_17
*957 PHY_EDGE_ROW_5_Right_5
*958 PHY_EDGE_ROW_6_Left_18
*959 PHY_EDGE_ROW_6_Right_6
*960 PHY_EDGE_ROW_7_Left_19
*961 PHY_EDGE_ROW_7_Right_7
*962 PHY_EDGE_ROW_8_Left_20
*963 PHY_EDGE_ROW_8_Right_8
*964 PHY_EDGE_ROW_9_Left_21
*965 PHY_EDGE_ROW_9_Right_9
*966 TAP_TAPCELL_ROW_0_24
*967 TAP_TAPCELL_ROW_0_25
*968 TAP_TAPCELL_ROW_0_26
*969 TAP_TAPCELL_ROW_0_27
*970 TAP_TAPCELL_ROW_0_28
*971 TAP_TAPCELL_ROW_0_29
*972 TAP_TAPCELL_ROW_0_30
*973 TAP_TAPCELL_ROW_0_31
*974 TAP_TAPCELL_ROW_0_32
*975 TAP_TAPCELL_ROW_0_33
*976 TAP_TAPCELL_ROW_0_34
*977 TAP_TAPCELL_ROW_0_35
*978 TAP_TAPCELL_ROW_0_36
*979 TAP_TAPCELL_ROW_0_37
*980 TAP_TAPCELL_ROW_0_38
*981 TAP_TAPCELL_ROW_0_39
*982 TAP_TAPCELL_ROW_10_112
*983 TAP_TAPCELL_ROW_10_113
*984 TAP_TAPCELL_ROW_10_114
*985 TAP_TAPCELL_ROW_10_115
*986 TAP_TAPCELL_ROW_10_116
*987 TAP_TAPCELL_ROW_10_117
*988 TAP_TAPCELL_ROW_10_118
*989 TAP_TAPCELL_ROW_10_119
*990 TAP_TAPCELL_ROW_11_120
*991 TAP_TAPCELL_ROW_11_121
*992 TAP_TAPCELL_ROW_11_122
*993 TAP_TAPCELL_ROW_11_123
*994 TAP_TAPCELL_ROW_11_124
*995 TAP_TAPCELL_ROW_11_125
*996 TAP_TAPCELL_ROW_11_126
*997 TAP_TAPCELL_ROW_11_127
*998 TAP_TAPCELL_ROW_11_128
*999 TAP_TAPCELL_ROW_11_129
*1000 TAP_TAPCELL_ROW_11_130
*1001 TAP_TAPCELL_ROW_11_131
*1002 TAP_TAPCELL_ROW_11_132
*1003 TAP_TAPCELL_ROW_11_133
*1004 TAP_TAPCELL_ROW_11_134
*1005 TAP_TAPCELL_ROW_11_135
*1006 TAP_TAPCELL_ROW_1_40
*1007 TAP_TAPCELL_ROW_1_41
*1008 TAP_TAPCELL_ROW_1_42
*1009 TAP_TAPCELL_ROW_1_43
*1010 TAP_TAPCELL_ROW_1_44
*1011 TAP_TAPCELL_ROW_1_45
*1012 TAP_TAPCELL_ROW_1_46
*1013 TAP_TAPCELL_ROW_1_47
*1014 TAP_TAPCELL_ROW_2_48
*1015 TAP_TAPCELL_ROW_2_49
*1016 TAP_TAPCELL_ROW_2_50
*1017 TAP_TAPCELL_ROW_2_51
*1018 TAP_TAPCELL_ROW_2_52
*1019 TAP_TAPCELL_ROW_2_53
*1020 TAP_TAPCELL_ROW_2_54
*1021 TAP_TAPCELL_ROW_2_55
*1022 TAP_TAPCELL_ROW_3_56
*1023 TAP_TAPCELL_ROW_3_57
*1024 TAP_TAPCELL_ROW_3_58
*1025 TAP_TAPCELL_ROW_3_59
*1026 TAP_TAPCELL_ROW_3_60
*1027 TAP_TAPCELL_ROW_3_61
*1028 TAP_TAPCELL_ROW_3_62
*1029 TAP_TAPCELL_ROW_3_63
*1030 TAP_TAPCELL_ROW_4_64
*1031 TAP_TAPCELL_ROW_4_65
*1032 TAP_TAPCELL_ROW_4_66
*1033 TAP_TAPCELL_ROW_4_67
*1034 TAP_TAPCELL_ROW_4_68
*1035 TAP_TAPCELL_ROW_4_69
*1036 TAP_TAPCELL_ROW_4_70
*1037 TAP_TAPCELL_ROW_4_71
*1038 TAP_TAPCELL_ROW_5_72
*1039 TAP_TAPCELL_ROW_5_73
*1040 TAP_TAPCELL_ROW_5_74
*1041 TAP_TAPCELL_ROW_5_75
*1042 TAP_TAPCELL_ROW_5_76
*1043 TAP_TAPCELL_ROW_5_77
*1044 TAP_TAPCELL_ROW_5_78
*1045 TAP_TAPCELL_ROW_5_79
*1046 TAP_TAPCELL_ROW_6_80
*1047 TAP_TAPCELL_ROW_6_81
*1048 TAP_TAPCELL_ROW_6_82
*1049 TAP_TAPCELL_ROW_6_83
*1050 TAP_TAPCELL_ROW_6_84
*1051 TAP_TAPCELL_ROW_6_85
*1052 TAP_TAPCELL_ROW_6_86
*1053 TAP_TAPCELL_ROW_6_87
*1054 TAP_TAPCELL_ROW_7_88
*1055 TAP_TAPCELL_ROW_7_89
*1056 TAP_TAPCELL_ROW_7_90
*1057 TAP_TAPCELL_ROW_7_91
*1058 TAP_TAPCELL_ROW_7_92
*1059 TAP_TAPCELL_ROW_7_93
*1060 TAP_TAPCELL_ROW_7_94
*1061 TAP_TAPCELL_ROW_7_95
*1062 TAP_TAPCELL_ROW_8_100
*1063 TAP_TAPCELL_ROW_8_101
*1064 TAP_TAPCELL_ROW_8_102
*1065 TAP_TAPCELL_ROW_8_103
*1066 TAP_TAPCELL_ROW_8_96
*1067 TAP_TAPCELL_ROW_8_97
*1068 TAP_TAPCELL_ROW_8_98
*1069 TAP_TAPCELL_ROW_8_99
*1070 TAP_TAPCELL_ROW_9_104
*1071 TAP_TAPCELL_ROW_9_105
*1072 TAP_TAPCELL_ROW_9_106
*1073 TAP_TAPCELL_ROW_9_107
*1074 TAP_TAPCELL_ROW_9_108
*1075 TAP_TAPCELL_ROW_9_109
*1076 TAP_TAPCELL_ROW_9_110
*1077 TAP_TAPCELL_ROW_9_111
*1078 _000_
*1079 _001_
*1080 _002_
*1081 _003_
*1082 _004_
*1083 _005_
*1084 _006_
*1085 _007_
*1086 _008_
*1087 _009_
*1088 _010_
*1089 _011_
*1090 _012_
*1091 _013_
*1092 _014_
*1093 _015_
*1094 _016_
*1095 _017_
*1096 _018_
*1097 _019_
*1098 _020_
*1099 _021_
*1100 _022_
*1101 _023_
*1102 _024_
*1103 _025_
*1104 _026_
*1105 _027_
*1106 _028_
*1107 _029_
*1108 _030_
*1109 _031_
*1110 _032_
*1111 _033_
*1112 _034_
*1113 _035_
*1114 _036_
*1115 _037_
*1116 _038_
*1117 _039_
*1118 _040_
*1119 _041_
*1120 _042_
*1121 _043_
*1122 _044_
*1123 _045_
*1124 _046_
*1125 _047_
*1126 _048_
*1127 _049_
*1128 _050_
*1129 _051_
*1130 _052_
*1131 _053_
*1132 _054_
*1133 _055_
*1134 _056_
*1135 _057_
*1136 _058_
*1137 _059_
*1138 _060_
*1139 _061_
*1140 _062_
*1141 _063_
*1142 _064_
*1143 _065_
*1144 _066_
*1145 _067_
*1146 _068_
*1147 _069_
*1148 _070_
*1149 _071_
*1150 _072_
*1151 _073_
*1152 _074_
*1153 _075_
*1154 _076_
*1155 _077_
*1156 _078_
*1157 _079_
*1158 _080_
*1159 _081_
*1160 _082_
*1161 _083_
*1162 _084_
*1163 _085_
*1164 _086_
*1165 _087_
*1166 _088_
*1167 _089_
*1168 _090_
*1169 _091_
*1170 _092_
*1171 _093_
*1172 _094_
*1173 _095_
*1174 _096_
*1175 _097_
*1176 _098_
*1177 _099_
*1178 _100_
*1179 _101_
*1180 _102_
*1181 _103_
*1182 _104_
*1183 output1
*1184 output10
*1185 output100
*1186 output101
*1187 output102
*1188 output103
*1189 output104
*1190 output105
*1191 output11
*1192 output12
*1193 output13
*1194 output14
*1195 output15
*1196 output16
*1197 output17
*1198 output18
*1199 output19
*1200 output2
*1201 output20
*1202 output21
*1203 output22
*1204 output23
*1205 output24
*1206 output25
*1207 output26
*1208 output27
*1209 output28
*1210 output29
*1211 output3
*1212 output30
*1213 output31
*1214 output32
*1215 output33
*1216 output34
*1217 output35
*1218 output36
*1219 output37
*1220 output38
*1221 output39
*1222 output4
*1223 output40
*1224 output41
*1225 output42
*1226 output43
*1227 output44
*1228 output45
*1229 output46
*1230 output47
*1231 output48
*1232 output49
*1233 output5
*1234 output50
*1235 output51
*1236 output52
*1237 output53
*1238 output54
*1239 output55
*1240 output56
*1241 output57
*1242 output58
*1243 output59
*1244 output6
*1245 output60
*1246 output61
*1247 output62
*1248 output63
*1249 output64
*1250 output65
*1251 output66
*1252 output67
*1253 output68
*1254 output69
*1255 output7
*1256 output70
*1257 output71
*1258 output72
*1259 output73
*1260 output74
*1261 output75
*1262 output76
*1263 output77
*1264 output78
*1265 output79
*1266 output8
*1267 output80
*1268 output81
*1269 output82
*1270 output83
*1271 output84
*1272 output85
*1273 output86
*1274 output87
*1275 output88
*1276 output89
*1277 output9
*1278 output90
*1279 output91
*1280 output92
*1281 output93
*1282 output94
*1283 output95
*1284 output96
*1285 output97
*1286 output98
*1287 output99

*PORTS
FrameData[0] I
FrameData[10] I
FrameData[11] I
FrameData[12] I
FrameData[13] I
FrameData[14] I
FrameData[15] I
FrameData[16] I
FrameData[17] I
FrameData[18] I
FrameData[19] I
FrameData[1] I
FrameData[20] I
FrameData[21] I
FrameData[22] I
FrameData[23] I
FrameData[24] I
FrameData[25] I
FrameData[26] I
FrameData[27] I
FrameData[28] I
FrameData[29] I
FrameData[2] I
FrameData[30] I
FrameData[31] I
FrameData[3] I
FrameData[4] I
FrameData[5] I
FrameData[6] I
FrameData[7] I
FrameData[8] I
FrameData[9] I
FrameData_O[0] O
FrameData_O[10] O
FrameData_O[11] O
FrameData_O[12] O
FrameData_O[13] O
FrameData_O[14] O
FrameData_O[15] O
FrameData_O[16] O
FrameData_O[17] O
FrameData_O[18] O
FrameData_O[19] O
FrameData_O[1] O
FrameData_O[20] O
FrameData_O[21] O
FrameData_O[22] O
FrameData_O[23] O
FrameData_O[24] O
FrameData_O[25] O
FrameData_O[26] O
FrameData_O[27] O
FrameData_O[28] O
FrameData_O[29] O
FrameData_O[2] O
FrameData_O[30] O
FrameData_O[31] O
FrameData_O[3] O
FrameData_O[4] O
FrameData_O[5] O
FrameData_O[6] O
FrameData_O[7] O
FrameData_O[8] O
FrameData_O[9] O
FrameStrobe[0] I
FrameStrobe[10] I
FrameStrobe[11] I
FrameStrobe[12] I
FrameStrobe[13] I
FrameStrobe[14] I
FrameStrobe[15] I
FrameStrobe[16] I
FrameStrobe[17] I
FrameStrobe[18] I
FrameStrobe[19] I
FrameStrobe[1] I
FrameStrobe[2] I
FrameStrobe[3] I
FrameStrobe[4] I
FrameStrobe[5] I
FrameStrobe[6] I
FrameStrobe[7] I
FrameStrobe[8] I
FrameStrobe[9] I
FrameStrobe_O[0] O
FrameStrobe_O[10] O
FrameStrobe_O[11] O
FrameStrobe_O[12] O
FrameStrobe_O[13] O
FrameStrobe_O[14] O
FrameStrobe_O[15] O
FrameStrobe_O[16] O
FrameStrobe_O[17] O
FrameStrobe_O[18] O
FrameStrobe_O[19] O
FrameStrobe_O[1] O
FrameStrobe_O[2] O
FrameStrobe_O[3] O
FrameStrobe_O[4] O
FrameStrobe_O[5] O
FrameStrobe_O[6] O
FrameStrobe_O[7] O
FrameStrobe_O[8] O
FrameStrobe_O[9] O
N1BEG[0] O
N1BEG[1] O
N1BEG[2] O
N1BEG[3] O
N2BEG[0] O
N2BEG[1] O
N2BEG[2] O
N2BEG[3] O
N2BEG[4] O
N2BEG[5] O
N2BEG[6] O
N2BEG[7] O
N2BEGb[0] O
N2BEGb[1] O
N2BEGb[2] O
N2BEGb[3] O
N2BEGb[4] O
N2BEGb[5] O
N2BEGb[6] O
N2BEGb[7] O
N4BEG[0] O
N4BEG[10] O
N4BEG[11] O
N4BEG[12] O
N4BEG[13] O
N4BEG[14] O
N4BEG[15] O
N4BEG[1] O
N4BEG[2] O
N4BEG[3] O
N4BEG[4] O
N4BEG[5] O
N4BEG[6] O
N4BEG[7] O
N4BEG[8] O
N4BEG[9] O
NN4BEG[0] O
NN4BEG[10] O
NN4BEG[11] O
NN4BEG[12] O
NN4BEG[13] O
NN4BEG[14] O
NN4BEG[15] O
NN4BEG[1] O
NN4BEG[2] O
NN4BEG[3] O
NN4BEG[4] O
NN4BEG[5] O
NN4BEG[6] O
NN4BEG[7] O
NN4BEG[8] O
NN4BEG[9] O
S1END[0] I
S1END[1] I
S1END[2] I
S1END[3] I
S2END[0] I
S2END[1] I
S2END[2] I
S2END[3] I
S2END[4] I
S2END[5] I
S2END[6] I
S2END[7] I
S2MID[0] I
S2MID[1] I
S2MID[2] I
S2MID[3] I
S2MID[4] I
S2MID[5] I
S2MID[6] I
S2MID[7] I
S4END[0] I
S4END[10] I
S4END[11] I
S4END[12] I
S4END[13] I
S4END[14] I
S4END[15] I
S4END[1] I
S4END[2] I
S4END[3] I
S4END[4] I
S4END[5] I
S4END[6] I
S4END[7] I
S4END[8] I
S4END[9] I
SS4END[0] I
SS4END[10] I
SS4END[11] I
SS4END[12] I
SS4END[13] I
SS4END[14] I
SS4END[15] I
SS4END[1] I
SS4END[2] I
SS4END[3] I
SS4END[4] I
SS4END[5] I
SS4END[6] I
SS4END[7] I
SS4END[8] I
SS4END[9] I
UserCLK I
UserCLKo O

*D_NET *1 0.00887225
*CONN
*P FrameData[0] I
*I *1078:A I *D sky130_fd_sc_hd__clkbuf_2
*I *318:DIODE I *D sky130_fd_sc_hd__diode_2
*CAP
1 FrameData[0] 0.00203392
2 *1078:A 1.23724e-05
3 *318:DIODE 0.0020463
4 *318:DIODE *319:DIODE 0.00358096
5 *318:DIODE *1082:A 1.1561e-05
6 *318:DIODE *1087:A 0.000923266
7 *318:DIODE *1092:A 2.0514e-05
8 *318:DIODE *1113:A 0
9 *318:DIODE *29:11 0.000102021
10 *1078:A *1087:A 8.8266e-05
11 *1078:A *1093:A 5.30673e-05
*RES
1 FrameData[0] *318:DIODE 24.3708 
2 *318:DIODE *1078:A 3.995 
*END

*D_NET *2 0.0193034
*CONN
*P FrameData[10] I
*I *329:DIODE I *D sky130_fd_sc_hd__diode_2
*I *1088:A I *D sky130_fd_sc_hd__buf_1
*CAP
1 FrameData[10] 0.00426811
2 *329:DIODE 2.24758e-05
3 *1088:A 0
4 *2:19 0.00429058
5 *329:DIODE *1150:A 0.0001249
6 *329:DIODE *308:24 7.35813e-05
7 *2:19 *335:DIODE 0.00147962
8 *2:19 *336:DIODE 0.000125886
9 *2:19 *340:DIODE 0.00352335
10 *2:19 *1087:A 0.00372018
11 *2:19 *1140:A 0.000196669
12 *2:19 *1141:A 4.92971e-05
13 *2:19 *1194:A 0
14 *2:19 *4:13 0.000120148
15 *2:19 *84:9 0.000476524
16 *2:19 *163:7 0
17 *2:19 *170:11 0
18 *2:19 *172:11 0
19 *2:19 *214:12 0.00053904
20 *2:19 *217:14 0.00014052
21 *2:19 *230:10 3.86607e-05
22 *2:19 *297:20 0.000113819
*RES
1 FrameData[10] *2:19 42.9792 
2 *2:19 *1088:A 1.6 
3 *2:19 *329:DIODE 2.74 
*END

*D_NET *3 0.0182101
*CONN
*P FrameData[11] I
*I *1089:A I *D sky130_fd_sc_hd__buf_1
*I *340:DIODE I *D sky130_fd_sc_hd__diode_2
*CAP
1 FrameData[11] 0.00294223
2 *1089:A 1.84334e-05
3 *340:DIODE 0.00296067
4 *340:DIODE *1153:A 0.000235324
5 *340:DIODE *4:13 0.00772091
6 *340:DIODE *180:13 0.000759237
7 *1089:A *180:13 4.99619e-05
8 *2:19 *340:DIODE 0.00352335
*RES
1 FrameData[11] *340:DIODE 28.5758 
2 *340:DIODE *1089:A 3.65 
*END

*D_NET *4 0.0183132
*CONN
*P FrameData[12] I
*I *346:DIODE I *D sky130_fd_sc_hd__diode_2
*I *1090:A I *D sky130_fd_sc_hd__buf_1
*CAP
1 FrameData[12] 0.00274188
2 *346:DIODE 5.98971e-05
3 *1090:A 0
4 *4:13 0.00280178
5 *346:DIODE *252:14 4.99619e-05
6 *346:DIODE *297:20 1.34503e-05
7 *4:13 *336:DIODE 0.000269718
8 *4:13 *347:DIODE 0.00225072
9 *4:13 *1092:A 0.00108657
10 *4:13 *1194:A 0.000179357
11 *4:13 *9:21 0.00047734
12 *4:13 *214:12 0.000541493
13 *340:DIODE *4:13 0.00772091
14 *2:19 *4:13 0.000120148
*RES
1 FrameData[12] *4:13 26.1519 
2 *4:13 *1090:A 1.6 
3 *4:13 *346:DIODE 2.74 
*END

*D_NET *5 0.0149671
*CONN
*P FrameData[13] I
*I *1091:A I *D sky130_fd_sc_hd__buf_1
*I *347:DIODE I *D sky130_fd_sc_hd__diode_2
*CAP
1 FrameData[13] 0.0030428
2 *1091:A 5.81042e-06
3 *347:DIODE 0.00304862
4 *347:DIODE *1092:A 0.00262834
5 *347:DIODE *1093:A 0.00219052
6 *347:DIODE *1147:A 0.000149148
7 *347:DIODE *1152:A 0
8 *347:DIODE *1154:A 0.000288579
9 *347:DIODE *8:13 0.000217425
10 *347:DIODE *11:21 0.000911813
11 *347:DIODE *17:27 0.000125469
12 *347:DIODE *179:15 7.96104e-06
13 *1091:A *14:45 4.99619e-05
14 *1091:A *77:15 4.99619e-05
15 *4:13 *347:DIODE 0.00225072
*RES
1 FrameData[13] *347:DIODE 20.5006 
2 *347:DIODE *1091:A 3.65 
*END

*D_NET *6 0.00855296
*CONN
*P FrameData[14] I
*I *1092:A I *D sky130_fd_sc_hd__clkbuf_2
*CAP
1 FrameData[14] 0.00174129
2 *1092:A 0.00174129
3 *1092:A *1087:A 8.40269e-05
4 *1092:A *1093:A 0.00110179
5 *1092:A *29:11 0.000149148
6 *1092:A *77:7 0
7 *318:DIODE *1092:A 2.0514e-05
8 *347:DIODE *1092:A 0.00262834
9 *4:13 *1092:A 0.00108657
*RES
1 FrameData[14] *1092:A 28.1839 
*END

*D_NET *7 0.0109247
*CONN
*P FrameData[15] I
*I *1093:A I *D sky130_fd_sc_hd__clkbuf_2
*CAP
1 FrameData[15] 0.00261591
2 *1093:A 0.00261591
3 *1093:A *334:DIODE 0.000107309
4 *1093:A *1087:A 0.000423657
5 *1093:A *8:13 0.000648412
6 *1093:A *11:21 0.000877336
7 *1093:A *29:11 0.000218037
8 *1093:A *77:7 7.27604e-05
9 *347:DIODE *1093:A 0.00219052
10 *1078:A *1093:A 5.30673e-05
11 *1092:A *1093:A 0.00110179
*RES
1 FrameData[15] *1093:A 34.5636 
*END

*D_NET *8 0.0152648
*CONN
*P FrameData[16] I
*I *1094:A I *D sky130_fd_sc_hd__clkbuf_2
*I *348:DIODE I *D sky130_fd_sc_hd__diode_2
*CAP
1 FrameData[16] 0.0032454
2 *1094:A 0
3 *348:DIODE 3.70805e-05
4 *8:13 0.00328248
5 *348:DIODE *244:8 0.00012657
6 *348:DIODE *285:8 3.90495e-05
7 *348:DIODE *296:8 4.99619e-05
8 *8:13 *350:DIODE 0.00205371
9 *8:13 *1152:A 0.000128635
10 *8:13 *9:19 0.000446816