*SPEF "ieee 1481-1999"
*DESIGN "S_CPU_IF"
*DATE "08:48:39 Monday February 24, 2025"
*VENDOR "The OpenROAD Project"
*PROGRAM "OpenROAD"
*VERSION "87af90f72f3f9be1fdfa1d886f0dd8d8b8f34694"
*DESIGN_FLOW "NAME_SCOPE LOCAL" "PIN_CAP NONE"
*DIVIDER /
*DELIMITER :
*BUS_DELIMITER []
*T_UNIT 1 NS
*C_UNIT 1 PF
*R_UNIT 1 OHM
*L_UNIT 1 HENRY

*NAME_MAP
*1 net233
*2 FrameData[0]
*3 FrameData[10]
*4 FrameData[11]
*5 FrameData[12]
*6 FrameData[13]
*7 FrameData[14]
*8 FrameData[15]
*9 FrameData[16]
*10 FrameData[17]
*11 FrameData[18]
*12 FrameData[19]
*13 FrameData[1]
*14 FrameData[20]
*15 FrameData[21]
*16 FrameData[22]
*17 FrameData[23]
*18 FrameData[24]
*19 FrameData[25]
*20 FrameData[26]
*21 FrameData[27]
*22 FrameData[28]
*23 FrameData[29]
*24 FrameData[2]
*25 FrameData[30]
*26 FrameData[31]
*27 FrameData[3]
*28 FrameData[4]
*29 FrameData[5]
*30 FrameData[6]
*31 FrameData[7]
*32 FrameData[8]
*33 FrameData[9]
*34 FrameData_O[0]
*35 FrameData_O[10]
*36 FrameData_O[11]
*37 FrameData_O[12]
*38 FrameData_O[13]
*39 FrameData_O[14]
*40 FrameData_O[15]
*41 FrameData_O[16]
*42 FrameData_O[17]
*43 FrameData_O[18]
*44 FrameData_O[19]
*45 FrameData_O[1]
*46 FrameData_O[20]
*47 FrameData_O[21]
*48 FrameData_O[22]
*49 FrameData_O[23]
*50 FrameData_O[24]
*51 FrameData_O[25]
*52 FrameData_O[26]
*53 FrameData_O[27]
*54 FrameData_O[28]
*55 FrameData_O[29]
*56 FrameData_O[2]
*57 FrameData_O[30]
*58 FrameData_O[31]
*59 FrameData_O[3]
*60 FrameData_O[4]
*61 FrameData_O[5]
*62 FrameData_O[6]
*63 FrameData_O[7]
*64 FrameData_O[8]
*65 FrameData_O[9]
*66 FrameStrobe[0]
*67 FrameStrobe[10]
*68 FrameStrobe[11]
*69 FrameStrobe[12]
*70 FrameStrobe[13]
*71 FrameStrobe[14]
*72 FrameStrobe[15]
*73 FrameStrobe[16]
*74 FrameStrobe[17]
*75 FrameStrobe[18]
*76 FrameStrobe[19]
*77 FrameStrobe[1]
*78 FrameStrobe[2]
*79 FrameStrobe[3]
*80 FrameStrobe[4]
*81 FrameStrobe[5]
*82 FrameStrobe[6]
*83 FrameStrobe[7]
*84 FrameStrobe[8]
*85 FrameStrobe[9]
*86 FrameStrobe_O[0]
*87 FrameStrobe_O[10]
*88 FrameStrobe_O[11]
*89 FrameStrobe_O[12]
*90 FrameStrobe_O[13]
*91 FrameStrobe_O[14]
*92 FrameStrobe_O[15]
*93 FrameStrobe_O[16]
*94 FrameStrobe_O[17]
*95 FrameStrobe_O[18]
*96 FrameStrobe_O[19]
*97 FrameStrobe_O[1]
*98 FrameStrobe_O[2]
*99 FrameStrobe_O[3]
*100 FrameStrobe_O[4]
*101 FrameStrobe_O[5]
*102 FrameStrobe_O[6]
*103 FrameStrobe_O[7]
*104 FrameStrobe_O[8]
*105 FrameStrobe_O[9]
*106 I_top0
*107 I_top1
*108 I_top10
*109 I_top11
*110 I_top12
*111 I_top13
*112 I_top14
*113 I_top15
*114 I_top2
*115 I_top3
*116 I_top4
*117 I_top5
*118 I_top6
*119 I_top7
*120 I_top8
*121 I_top9
*122 N1BEG[0]
*123 N1BEG[1]
*124 N1BEG[2]
*125 N1BEG[3]
*126 N2BEG[0]
*127 N2BEG[1]
*128 N2BEG[2]
*129 N2BEG[3]
*130 N2BEG[4]
*131 N2BEG[5]
*132 N2BEG[6]
*133 N2BEG[7]
*134 N2BEGb[0]
*135 N2BEGb[1]
*136 N2BEGb[2]
*137 N2BEGb[3]
*138 N2BEGb[4]
*139 N2BEGb[5]
*140 N2BEGb[6]
*141 N2BEGb[7]
*142 N4BEG[0]
*143 N4BEG[10]
*144 N4BEG[11]
*145 N4BEG[12]
*146 N4BEG[13]
*147 N4BEG[14]
*148 N4BEG[15]
*149 N4BEG[1]
*150 N4BEG[2]
*151 N4BEG[3]
*152 N4BEG[4]
*153 N4BEG[5]
*154 N4BEG[6]
*155 N4BEG[7]
*156 N4BEG[8]
*157 N4BEG[9]
*158 NN4BEG[0]
*159 NN4BEG[10]
*160 NN4BEG[11]
*161 NN4BEG[12]
*162 NN4BEG[13]
*163 NN4BEG[14]
*164 NN4BEG[15]
*165 NN4BEG[1]
*166 NN4BEG[2]
*167 NN4BEG[3]
*168 NN4BEG[4]
*169 NN4BEG[5]
*170 NN4BEG[6]
*171 NN4BEG[7]
*172 NN4BEG[8]
*173 NN4BEG[9]
*174 O_top0
*175 O_top1
*176 O_top10
*177 O_top11
*178 O_top12
*179 O_top13
*180 O_top14
*181 O_top15
*182 O_top2
*183 O_top3
*184 O_top4
*185 O_top5
*186 O_top6
*187 O_top7
*188 O_top8
*189 O_top9
*190 S1END[0]
*191 S1END[1]
*192 S1END[2]
*193 S1END[3]
*194 S2END[0]
*195 S2END[1]
*196 S2END[2]
*197 S2END[3]
*198 S2END[4]
*199 S2END[5]
*200 S2END[6]
*201 S2END[7]
*202 S2MID[0]
*203 S2MID[1]
*204 S2MID[2]
*205 S2MID[3]
*206 S2MID[4]
*207 S2MID[5]
*208 S2MID[6]
*209 S2MID[7]
*210 S4END[0]
*211 S4END[10]
*212 S4END[11]
*213 S4END[12]
*214 S4END[13]
*215 S4END[14]
*216 S4END[15]
*217 S4END[1]
*218 S4END[2]
*219 S4END[3]
*220 S4END[4]
*221 S4END[5]
*222 S4END[6]
*223 S4END[7]
*224 S4END[8]
*225 S4END[9]
*226 SS4END[0]
*227 SS4END[10]
*228 SS4END[11]
*229 SS4END[12]
*230 SS4END[13]
*231 SS4END[14]
*232 SS4END[15]
*233 SS4END[1]
*234 SS4END[2]
*235 SS4END[3]
*236 SS4END[4]
*237 SS4END[5]
*238 SS4END[6]
*239 SS4END[7]
*240 SS4END[8]
*241 SS4END[9]
*242 UserCLK
*243 UserCLKo
*246 Inst_S_CPU_IF_ConfigMem\.Inst_frame0_bit0\.Q
*247 Inst_S_CPU_IF_ConfigMem\.Inst_frame0_bit1\.Q
*248 Inst_S_CPU_IF_ConfigMem\.Inst_frame0_bit10\.Q
*249 Inst_S_CPU_IF_ConfigMem\.Inst_frame0_bit11\.Q
*250 Inst_S_CPU_IF_ConfigMem\.Inst_frame0_bit12\.Q
*251 Inst_S_CPU_IF_ConfigMem\.Inst_frame0_bit13\.Q
*252 Inst_S_CPU_IF_ConfigMem\.Inst_frame0_bit14\.Q
*253 Inst_S_CPU_IF_ConfigMem\.Inst_frame0_bit15\.Q
*254 Inst_S_CPU_IF_ConfigMem\.Inst_frame0_bit16\.Q
*255 Inst_S_CPU_IF_ConfigMem\.Inst_frame0_bit17\.Q
*256 Inst_S_CPU_IF_ConfigMem\.Inst_frame0_bit18\.Q
*257 Inst_S_CPU_IF_ConfigMem\.Inst_frame0_bit19\.Q
*258 Inst_S_CPU_IF_ConfigMem\.Inst_frame0_bit2\.Q
*259 Inst_S_CPU_IF_ConfigMem\.Inst_frame0_bit20\.Q
*260 Inst_S_CPU_IF_ConfigMem\.Inst_frame0_bit21\.Q
*261 Inst_S_CPU_IF_ConfigMem\.Inst_frame0_bit22\.Q
*262 Inst_S_CPU_IF_ConfigMem\.Inst_frame0_bit23\.Q
*263 Inst_S_CPU_IF_ConfigMem\.Inst_frame0_bit24\.Q
*264 Inst_S_CPU_IF_ConfigMem\.Inst_frame0_bit25\.Q
*265 Inst_S_CPU_IF_ConfigMem\.Inst_frame0_bit26\.Q
*266 Inst_S_CPU_IF_ConfigMem\.Inst_frame0_bit27\.Q
*267 Inst_S_CPU_IF_ConfigMem\.Inst_frame0_bit28\.Q
*268 Inst_S_CPU_IF_ConfigMem\.Inst_frame0_bit29\.Q
*269 Inst_S_CPU_IF_ConfigMem\.Inst_frame0_bit3\.Q
*270 Inst_S_CPU_IF_ConfigMem\.Inst_frame0_bit30\.Q
*271 Inst_S_CPU_IF_ConfigMem\.Inst_frame0_bit31\.Q
*272 Inst_S_CPU_IF_ConfigMem\.Inst_frame0_bit4\.Q
*273 Inst_S_CPU_IF_ConfigMem\.Inst_frame0_bit5\.Q
*274 Inst_S_CPU_IF_ConfigMem\.Inst_frame0_bit6\.Q
*275 Inst_S_CPU_IF_ConfigMem\.Inst_frame0_bit7\.Q
*276 Inst_S_CPU_IF_ConfigMem\.Inst_frame0_bit8\.Q
*277 Inst_S_CPU_IF_ConfigMem\.Inst_frame0_bit9\.Q
*278 Inst_S_CPU_IF_ConfigMem\.Inst_frame1_bit0\.Q
*279 Inst_S_CPU_IF_ConfigMem\.Inst_frame1_bit1\.Q
*280 Inst_S_CPU_IF_ConfigMem\.Inst_frame1_bit10\.Q
*281 Inst_S_CPU_IF_ConfigMem\.Inst_frame1_bit11\.Q
*282 Inst_S_CPU_IF_ConfigMem\.Inst_frame1_bit12\.Q
*283 Inst_S_CPU_IF_ConfigMem\.Inst_frame1_bit13\.Q
*284 Inst_S_CPU_IF_ConfigMem\.Inst_frame1_bit14\.Q
*285 Inst_S_CPU_IF_ConfigMem\.Inst_frame1_bit15\.Q
*286 Inst_S_CPU_IF_ConfigMem\.Inst_frame1_bit16\.Q
*287 Inst_S_CPU_IF_ConfigMem\.Inst_frame1_bit17\.Q
*288 Inst_S_CPU_IF_ConfigMem\.Inst_frame1_bit18\.Q
*289 Inst_S_CPU_IF_ConfigMem\.Inst_frame1_bit19\.Q
*290 Inst_S_CPU_IF_ConfigMem\.Inst_frame1_bit2\.Q
*291 Inst_S_CPU_IF_ConfigMem\.Inst_frame1_bit20\.Q
*292 Inst_S_CPU_IF_ConfigMem\.Inst_frame1_bit21\.Q
*293 Inst_S_CPU_IF_ConfigMem\.Inst_frame1_bit22\.Q
*294 Inst_S_CPU_IF_ConfigMem\.Inst_frame1_bit23\.Q
*295 Inst_S_CPU_IF_ConfigMem\.Inst_frame1_bit24\.Q
*296 Inst_S_CPU_IF_ConfigMem\.Inst_frame1_bit25\.Q
*297 Inst_S_CPU_IF_ConfigMem\.Inst_frame1_bit26\.Q
*298 Inst_S_CPU_IF_ConfigMem\.Inst_frame1_bit27\.Q
*299 Inst_S_CPU_IF_ConfigMem\.Inst_frame1_bit28\.Q
*300 Inst_S_CPU_IF_ConfigMem\.Inst_frame1_bit29\.Q
*301 Inst_S_CPU_IF_ConfigMem\.Inst_frame1_bit3\.Q
*302 Inst_S_CPU_IF_ConfigMem\.Inst_frame1_bit30\.Q
*303 Inst_S_CPU_IF_ConfigMem\.Inst_frame1_bit31\.Q
*304 Inst_S_CPU_IF_ConfigMem\.Inst_frame1_bit4\.Q
*305 Inst_S_CPU_IF_ConfigMem\.Inst_frame1_bit5\.Q
*306 Inst_S_CPU_IF_ConfigMem\.Inst_frame1_bit6\.Q
*307 Inst_S_CPU_IF_ConfigMem\.Inst_frame1_bit7\.Q
*308 Inst_S_CPU_IF_ConfigMem\.Inst_frame1_bit8\.Q
*309 Inst_S_CPU_IF_ConfigMem\.Inst_frame1_bit9\.Q
*310 Inst_S_CPU_IF_ConfigMem\.Inst_frame2_bit10\.Q
*311 Inst_S_CPU_IF_ConfigMem\.Inst_frame2_bit11\.Q
*312 Inst_S_CPU_IF_ConfigMem\.Inst_frame2_bit12\.Q
*313 Inst_S_CPU_IF_ConfigMem\.Inst_frame2_bit13\.Q
*314 Inst_S_CPU_IF_ConfigMem\.Inst_frame2_bit14\.Q
*315 Inst_S_CPU_IF_ConfigMem\.Inst_frame2_bit15\.Q
*316 Inst_S_CPU_IF_ConfigMem\.Inst_frame2_bit16\.Q
*317 Inst_S_CPU_IF_ConfigMem\.Inst_frame2_bit17\.Q
*318 Inst_S_CPU_IF_ConfigMem\.Inst_frame2_bit18\.Q
*319 Inst_S_CPU_IF_ConfigMem\.Inst_frame2_bit19\.Q
*320 Inst_S_CPU_IF_ConfigMem\.Inst_frame2_bit20\.Q
*321 Inst_S_CPU_IF_ConfigMem\.Inst_frame2_bit21\.Q
*322 Inst_S_CPU_IF_ConfigMem\.Inst_frame2_bit22\.Q
*323 Inst_S_CPU_IF_ConfigMem\.Inst_frame2_bit23\.Q
*324 Inst_S_CPU_IF_ConfigMem\.Inst_frame2_bit24\.Q
*325 Inst_S_CPU_IF_ConfigMem\.Inst_frame2_bit25\.Q
*326 Inst_S_CPU_IF_ConfigMem\.Inst_frame2_bit26\.Q
*327 Inst_S_CPU_IF_ConfigMem\.Inst_frame2_bit27\.Q
*328 Inst_S_CPU_IF_ConfigMem\.Inst_frame2_bit28\.Q
*329 Inst_S_CPU_IF_ConfigMem\.Inst_frame2_bit29\.Q
*330 Inst_S_CPU_IF_ConfigMem\.Inst_frame2_bit30\.Q
*331 Inst_S_CPU_IF_ConfigMem\.Inst_frame2_bit31\.Q
*332 Inst_S_CPU_IF_ConfigMem\.Inst_frame2_bit8\.Q
*333 Inst_S_CPU_IF_ConfigMem\.Inst_frame2_bit9\.Q
*334 Inst_S_CPU_IF_switch_matrix\.N1BEG0
*335 Inst_S_CPU_IF_switch_matrix\.N1BEG1
*336 Inst_S_CPU_IF_switch_matrix\.N1BEG2
*337 Inst_S_CPU_IF_switch_matrix\.N1BEG3
*338 Inst_S_CPU_IF_switch_matrix\.N2BEG0
*339 Inst_S_CPU_IF_switch_matrix\.N2BEG1
*340 Inst_S_CPU_IF_switch_matrix\.N2BEG2
*341 Inst_S_CPU_IF_switch_matrix\.N2BEG3
*342 Inst_S_CPU_IF_switch_matrix\.N2BEG4
*343 Inst_S_CPU_IF_switch_matrix\.N2BEG5
*344 Inst_S_CPU_IF_switch_matrix\.N2BEG6
*345 Inst_S_CPU_IF_switch_matrix\.N2BEG7
*346 Inst_S_CPU_IF_switch_matrix\.N2BEGb0
*347 Inst_S_CPU_IF_switch_matrix\.N2BEGb1
*348 Inst_S_CPU_IF_switch_matrix\.N2BEGb2
*349 Inst_S_CPU_IF_switch_matrix\.N2BEGb3
*350 Inst_S_CPU_IF_switch_matrix\.N2BEGb4
*351 Inst_S_CPU_IF_switch_matrix\.N2BEGb5
*352 Inst_S_CPU_IF_switch_matrix\.N2BEGb6
*353 Inst_S_CPU_IF_switch_matrix\.N2BEGb7
*354 Inst_S_CPU_IF_switch_matrix\.N4BEG0
*355 Inst_S_CPU_IF_switch_matrix\.N4BEG1
*356 Inst_S_CPU_IF_switch_matrix\.N4BEG10
*357 Inst_S_CPU_IF_switch_matrix\.N4BEG11
*358 Inst_S_CPU_IF_switch_matrix\.N4BEG12
*359 Inst_S_CPU_IF_switch_matrix\.N4BEG13
*360 Inst_S_CPU_IF_switch_matrix\.N4BEG14
*361 Inst_S_CPU_IF_switch_matrix\.N4BEG15
*362 Inst_S_CPU_IF_switch_matrix\.N4BEG2
*363 Inst_S_CPU_IF_switch_matrix\.N4BEG3
*364 Inst_S_CPU_IF_switch_matrix\.N4BEG4
*365 Inst_S_CPU_IF_switch_matrix\.N4BEG5
*366 Inst_S_CPU_IF_switch_matrix\.N4BEG6
*367 Inst_S_CPU_IF_switch_matrix\.N4BEG7
*368 Inst_S_CPU_IF_switch_matrix\.N4BEG8
*369 Inst_S_CPU_IF_switch_matrix\.N4BEG9
*370 Inst_S_CPU_IF_switch_matrix\.NN4BEG0
*371 Inst_S_CPU_IF_switch_matrix\.NN4BEG1
*372 Inst_S_CPU_IF_switch_matrix\.NN4BEG10
*373 Inst_S_CPU_IF_switch_matrix\.NN4BEG11
*374 Inst_S_CPU_IF_switch_matrix\.NN4BEG12
*375 Inst_S_CPU_IF_switch_matrix\.NN4BEG13
*376 Inst_S_CPU_IF_switch_matrix\.NN4BEG14
*377 Inst_S_CPU_IF_switch_matrix\.NN4BEG15
*378 Inst_S_CPU_IF_switch_matrix\.NN4BEG2
*379 Inst_S_CPU_IF_switch_matrix\.NN4BEG3
*380 Inst_S_CPU_IF_switch_matrix\.NN4BEG4
*381 Inst_S_CPU_IF_switch_matrix\.NN4BEG5
*382 Inst_S_CPU_IF_switch_matrix\.NN4BEG6
*383 Inst_S_CPU_IF_switch_matrix\.NN4BEG7
*384 Inst_S_CPU_IF_switch_matrix\.NN4BEG8
*385 Inst_S_CPU_IF_switch_matrix\.NN4BEG9
*386 net1
*387 net10
*388 net100
*389 net101
*390 net102
*391 net103
*392 net104
*393 net105
*394 net106
*395 net107
*396 net108
*397 net109
*398 net11
*399 net110
*400 net111
*401 net112
*402 net113
*403 net114
*404 net115
*405 net116
*406 net117
*407 net118
*408 net119
*409 net12
*410 net120
*411 net121
*412 net122
*413 net123
*414 net124
*415 net125
*416 net126
*417 net127
*418 net128
*419 net129
*420 net13
*421 net130
*422 net131
*423 net132
*424 net133
*425 net134
*426 net135
*427 net136
*428 net137
*429 net138
*430 net139
*431 net14
*432 net140
*433 net141
*434 net142
*435 net143
*436 net144
*437 net145
*438 net146
*439 net147
*440 net148
*441 net149
*442 net15
*443 net150
*444 net151
*445 net152
*446 net153
*447 net154
*448 net155
*449 net156
*450 net157
*451 net158
*452 net159
*453 net16
*454 net160
*455 net161
*456 net162
*457 net163
*458 net164
*459 net165
*460 net166
*461 net167
*462 net168
*463 net169
*464 net17
*465 net170
*466 net171
*467 net172
*468 net173
*469 net174
*470 net175
*471 net176
*472 net177
*473 net178
*474 net179
*475 net18
*476 net180
*477 net181
*478 net182
*479 net183
*480 net184
*481 net185
*482 net186
*483 net187
*484 net188
*485 net189
*486 net19
*487 net190
*488 net191
*489 net192
*490 net193
*491 net194
*492 net195
*493 net196
*494 net197
*495 net198
*496 net199
*497 net2
*498 net20
*499 net200
*500 net201
*501 net202
*502 net203
*503 net204
*504 net205
*505 net206
*506 net207
*507 net208
*508 net209
*509 net21
*510 net210
*511 net211
*512 net212
*513 net213
*514 net214
*515 net215
*516 net216
*517 net217
*518 net218
*519 net219
*520 net22
*521 net220
*522 net221
*523 net222
*524 net223
*525 net224
*526 net225
*527 net226
*528 net227
*529 net228
*530 net229
*531 net23
*532 net230
*533 net231
*534 net232
*535 net24
*536 net25
*537 net26
*538 net27
*539 net28
*540 net29
*541 net3
*542 net30
*543 net31
*544 net32
*545 net33
*546 net34
*547 net35
*548 net36
*549 net37
*550 net38
*551 net39
*552 net4
*553 net40
*554 net41
*555 net42
*556 net43
*557 net44
*558 net45
*559 net46
*560 net47
*561 net48
*562 net49
*563 net5
*564 net50
*565 net51
*566 net52
*567 net53
*568 net54
*569 net55
*570 net56
*571 net57
*572 net58
*573 net59
*574 net6
*575 net60
*576 net61
*577 net62
*578 net63
*579 net64
*580 net65
*581 net66
*582 net67
*583 net68
*584 net69
*585 net7
*586 net70
*587 net71
*588 net72
*589 net73
*590 net74
*591 net75
*592 net76
*593 net77
*594 net78
*595 net79
*596 net8
*597 net80
*598 net81
*599 net82
*600 net83
*601 net84
*602 net85
*603 net86
*604 net87
*605 net88
*606 net89
*607 net9
*608 net90
*609 net91
*610 net92
*611 net93
*612 net94
*613 net95
*614 net96
*615 net97
*616 net98
*617 net99
*618 ANTENNA_1
*619 ANTENNA_2
*620 ANTENNA_3
*621 ANTENNA_4
*622 FILLER_0_113
*623 FILLER_0_119
*624 FILLER_0_126
*625 FILLER_0_130
*626 FILLER_0_135
*627 FILLER_0_139
*628 FILLER_0_145
*629 FILLER_0_151
*630 FILLER_0_159
*631 FILLER_0_167
*632 FILLER_0_186
*633 FILLER_0_191
*634 FILLER_0_197
*635 FILLER_0_210
*636 FILLER_0_223
*637 FILLER_0_225
*638 FILLER_0_23
*639 FILLER_0_251
*640 FILLER_0_257
*641 FILLER_0_269
*642 FILLER_0_277
*643 FILLER_0_281
*644 FILLER_0_29
*645 FILLER_0_293
*646 FILLER_0_305
*647 FILLER_0_309
*648 FILLER_0_320
*649 FILLER_0_333
*650 FILLER_0_337
*651 FILLER_0_345
*652 FILLER_0_352
*653 FILLER_0_365
*654 FILLER_0_377
*655 FILLER_0_389
*656 FILLER_0_393
*657 FILLER_0_397
*658 FILLER_0_72
*659 FILLER_0_78
*660 FILLER_0_89
*661 FILLER_0_94
*662 FILLER_10_113
*663 FILLER_10_172
*664 FILLER_10_197
*665 FILLER_10_226
*666 FILLER_10_289
*667 FILLER_10_295
*668 FILLER_10_309
*669 FILLER_10_352
*670 FILLER_10_358
*671 FILLER_10_362
*672 FILLER_10_37
*673 FILLER_10_379
*674 FILLER_10_385
*675 FILLER_10_397
*676 FILLER_10_43
*677 FILLER_10_49
*678 FILLER_11_113
*679 FILLER_11_218
*680 FILLER_11_222
*681 FILLER_11_23
*682 FILLER_11_237
*683 FILLER_11_250
*684 FILLER_11_334
*685 FILLER_11_363
*686 FILLER_11_389
*687 FILLER_11_409
*688 FILLER_11_81
*689 FILLER_11_85
*690 FILLER_1_122
*691 FILLER_1_139
*692 FILLER_1_145
*693 FILLER_1_167
*694 FILLER_1_17
*695 FILLER_1_190
*696 FILLER_1_198
*697 FILLER_1_214
*698 FILLER_1_222
*699 FILLER_1_240
*700 FILLER_1_252
*701 FILLER_1_256
*702 FILLER_1_276
*703 FILLER_1_281
*704 FILLER_1_285
*705 FILLER_1_289
*706 FILLER_1_301
*707 FILLER_1_32
*708 FILLER_1_331
*709 FILLER_1_335
*710 FILLER_1_337
*711 FILLER_1_345
*712 FILLER_1_361
*713 FILLER_1_373
*714 FILLER_1_385
*715 FILLER_1_391
*716 FILLER_1_393
*717 FILLER_1_401
*718 FILLER_1_53
*719 FILLER_1_57
*720 FILLER_1_72
*721 FILLER_1_84
*722 FILLER_2_121
*723 FILLER_2_136
*724 FILLER_2_141
*725 FILLER_2_156
*726 FILLER_2_162
*727 FILLER_2_178
*728 FILLER_2_182
*729 FILLER_2_194
*730 FILLER_2_197
*731 FILLER_2_210
*732 FILLER_2_222
*733 FILLER_2_231
*734 FILLER_2_247
*735 FILLER_2_251
*736 FILLER_2_253
*737 FILLER_2_265
*738 FILLER_2_269
*739 FILLER_2_282
*740 FILLER_2_29
*741 FILLER_2_296
*742 FILLER_2_306
*743 FILLER_2_309
*744 FILLER_2_338
*745 FILLER_2_350
*746 FILLER_2_362
*747 FILLER_2_371
*748 FILLER_2_382
*749 FILLER_2_394
*750 FILLER_2_406
*751 FILLER_2_41
*752 FILLER_2_45
*753 FILLER_2_64
*754 FILLER_2_78
*755 FILLER_3_10
*756 FILLER_3_110
*757 FILLER_3_113
*758 FILLER_3_125
*759 FILLER_3_134
*760 FILLER_3_138
*761 FILLER_3_151
*762 FILLER_3_157
*763 FILLER_3_161
*764 FILLER_3_167
*765 FILLER_3_169
*766 FILLER_3_181
*767 FILLER_3_187
*768 FILLER_3_200
*769 FILLER_3_215
*770 FILLER_3_223
*771 FILLER_3_249
*772 FILLER_3_255
*773 FILLER_3_268
*774 FILLER_3_293
*775 FILLER_3_305
*776 FILLER_3_313
*777 FILLER_3_337
*778 FILLER_3_349
*779 FILLER_3_379
*780 FILLER_3_391
*781 FILLER_3_393
*782 FILLER_3_400
*783 FILLER_3_408
*784 FILLER_3_47
*785 FILLER_3_55
*786 FILLER_3_78
*787 FILLER_4_110
*788 FILLER_4_118
*789 FILLER_4_132
*790 FILLER_4_141
*791 FILLER_4_147
*792 FILLER_4_172
*793 FILLER_4_176
*794 FILLER_4_189
*795 FILLER_4_195
*796 FILLER_4_197
*797 FILLER_4_22
*798 FILLER_4_253
*799 FILLER_4_275
*800 FILLER_4_281
*801 FILLER_4_288
*802 FILLER_4_306
*803 FILLER_4_309
*804 FILLER_4_329
*805 FILLER_4_357
*806 FILLER_4_363
*807 FILLER_4_365
*808 FILLER_4_387
*809 FILLER_4_399
*810 FILLER_4_403
*811 FILLER_4_41
*812 FILLER_4_49
*813 FILLER_4_73
*814 FILLER_4_79
*815 FILLER_4_83
*816 FILLER_4_85
*817 FILLER_4_97
*818 FILLER_5_113
*819 FILLER_5_117
*820 FILLER_5_139
*821 FILLER_5_143
*822 FILLER_5_208
*823 FILLER_5_216
*824 FILLER_5_220
*825 FILLER_5_225
*826 FILLER_5_243
*827 FILLER_5_255
*828 FILLER_5_262
*829 FILLER_5_27
*830 FILLER_5_270
*831 FILLER_5_275
*832 FILLER_5_279
*833 FILLER_5_293
*834 FILLER_5_310
*835 FILLER_5_322
*836 FILLER_5_334
*837 FILLER_5_341
*838 FILLER_5_353
*839 FILLER_5_365
*840 FILLER_5_373
*841 FILLER_5_377
*842 FILLER_5_389
*843 FILLER_5_39
*844 FILLER_5_393
*845 FILLER_5_405
*846 FILLER_5_43
*847 FILLER_5_57
*848 FILLER_5_61
*849 FILLER_5_91
*850 FILLER_5_95
*851 FILLER_6_105
*852 FILLER_6_12
*853 FILLER_6_130
*854 FILLER_6_138
*855 FILLER_6_153
*856 FILLER_6_165
*857 FILLER_6_177
*858 FILLER_6_189
*859 FILLER_6_195
*860 FILLER_6_197
*861 FILLER_6_209
*862 FILLER_6_213
*863 FILLER_6_226
*864 FILLER_6_238
*865 FILLER_6_24
*866 FILLER_6_250
*867 FILLER_6_265
*868 FILLER_6_273
*869 FILLER_6_309
*870 FILLER_6_347
*871 FILLER_6_359
*872 FILLER_6_363
*873 FILLER_6_365
*874 FILLER_6_380
*875 FILLER_6_392
*876 FILLER_6_400
*877 FILLER_6_404
*878 FILLER_6_45
*879 FILLER_6_53
*880 FILLER_6_68
*881 FILLER_6_80
*882 FILLER_6_85
*883 FILLER_6_90
*884 FILLER_6_98
*885 FILLER_7_10
*886 FILLER_7_111
*887 FILLER_7_113
*888 FILLER_7_117
*889 FILLER_7_130
*890 FILLER_7_164
*891 FILLER_7_181
*892 FILLER_7_194
*893 FILLER_7_202
*894 FILLER_7_219
*895 FILLER_7_22
*896 FILLER_7_223
*897 FILLER_7_225
*898 FILLER_7_255
*899 FILLER_7_26
*900 FILLER_7_278
*901 FILLER_7_293
*902 FILLER_7_299
*903 FILLER_7_31
*904 FILLER_7_324
*905 FILLER_7_335
*906 FILLER_7_340
*907 FILLER_7_348
*908 FILLER_7_361
*909 FILLER_7_379
*910 FILLER_7_391
*911 FILLER_7_393
*912 FILLER_7_405
*913 FILLER_7_51
*914 FILLER_7_55
*915 FILLER_7_57
*916 FILLER_7_77
*917 FILLER_7_82
*918 FILLER_7_86
*919 FILLER_8_107
*920 FILLER_8_116
*921 FILLER_8_13
*922 FILLER_8_132
*923 FILLER_8_141
*924 FILLER_8_154
*925 FILLER_8_162
*926 FILLER_8_197
*927 FILLER_8_221
*928 FILLER_8_229
*929 FILLER_8_242
*930 FILLER_8_25
*931 FILLER_8_250
*932 FILLER_8_253
*933 FILLER_8_264
*934 FILLER_8_276
*935 FILLER_8_288
*936 FILLER_8_29
*937 FILLER_8_296
*938 FILLER_8_302
*939 FILLER_8_321
*940 FILLER_8_330
*941 FILLER_8_353
*942 FILLER_8_361
*943 FILLER_8_365
*944 FILLER_8_377
*945 FILLER_8_389
*946 FILLER_8_400
*947 FILLER_8_42
*948 FILLER_8_51
*949 FILLER_8_57
*950 FILLER_8_62
*951 FILLER_8_70
*952 FILLER_8_89
*953 FILLER_8_94
*954 FILLER_9_139
*955 FILLER_9_149
*956 FILLER_9_157
*957 FILLER_9_161
*958 FILLER_9_166
*959 FILLER_9_169
*960 FILLER_9_188
*961 FILLER_9_211
*962 FILLER_9_219
*963 FILLER_9_223
*964 FILLER_9_225
*965 FILLER_9_23
*966 FILLER_9_241
*967 FILLER_9_251
*968 FILLER_9_259
*969 FILLER_9_264
*970 FILLER_9_276
*971 FILLER_9_296
*972 FILLER_9_300
*973 FILLER_9_308
*974 FILLER_9_315
*975 FILLER_9_334
*976 FILLER_9_346
*977 FILLER_9_35
*978 FILLER_9_358
*979 FILLER_9_370
*980 FILLER_9_375
*981 FILLER_9_387
*982 FILLER_9_391
*983 FILLER_9_393
*984 FILLER_9_43
*985 FILLER_9_70
*986 PHY_EDGE_ROW_0_Left_12
*987 PHY_EDGE_ROW_0_Right_0
*988 PHY_EDGE_ROW_10_Left_22
*989 PHY_EDGE_ROW_10_Right_10
*990 PHY_EDGE_ROW_11_Left_23
*991 PHY_EDGE_ROW_11_Right_11
*992 PHY_EDGE_ROW_1_Left_13
*993 PHY_EDGE_ROW_1_Right_1
*994 PHY_EDGE_ROW_2_Left_14
*995 PHY_EDGE_ROW_2_Right_2
*996 PHY_EDGE_ROW_3_Left_15
*997 PHY_EDGE_ROW_3_Right_3
*998 PHY_EDGE_ROW_4_Left_16
*999 PHY_EDGE_ROW_4_Right_4
*1000 PHY_EDGE_ROW_5_Left_17
*1001 PHY_EDGE_ROW_5_Right_5
*1002 PHY_EDGE_ROW_6_Left_18
*1003 PHY_EDGE_ROW_6_Right_6
*1004 PHY_EDGE_ROW_7_Left_19
*1005 PHY_EDGE_ROW_7_Right_7
*1006 PHY_EDGE_ROW_8_Left_20
*1007 PHY_EDGE_ROW_8_Right_8
*1008 PHY_EDGE_ROW_9_Left_21
*1009 PHY_EDGE_ROW_9_Right_9
*1010 S_CPU_IF_222
*1011 TAP_TAPCELL_ROW_0_24
*1012 TAP_TAPCELL_ROW_0_25
*1013 TAP_TAPCELL_ROW_0_26
*1014 TAP_TAPCELL_ROW_0_27
*1015 TAP_TAPCELL_ROW_0_28
*1016 TAP_TAPCELL_ROW_0_29
*1017 TAP_TAPCELL_ROW_0_30
*1018 TAP_TAPCELL_ROW_0_31
*1019 TAP_TAPCELL_ROW_0_32
*1020 TAP_TAPCELL_ROW_0_33
*1021 TAP_TAPCELL_ROW_0_34
*1022 TAP_TAPCELL_ROW_0_35
*1023 TAP_TAPCELL_ROW_0_36
*1024 TAP_TAPCELL_ROW_0_37
*1025 TAP_TAPCELL_ROW_10_101
*1026 TAP_TAPCELL_ROW_10_102
*1027 TAP_TAPCELL_ROW_10_103
*1028 TAP_TAPCELL_ROW_10_104
*1029 TAP_TAPCELL_ROW_10_105
*1030 TAP_TAPCELL_ROW_10_106
*1031 TAP_TAPCELL_ROW_10_107
*1032 TAP_TAPCELL_ROW_11_108
*1033 TAP_TAPCELL_ROW_11_109
*1034 TAP_TAPCELL_ROW_11_110
*1035 TAP_TAPCELL_ROW_11_111
*1036 TAP_TAPCELL_ROW_11_112
*1037 TAP_TAPCELL_ROW_11_113
*1038 TAP_TAPCELL_ROW_11_114
*1039 TAP_TAPCELL_ROW_11_115
*1040 TAP_TAPCELL_ROW_11_116
*1041 TAP_TAPCELL_ROW_11_117
*1042 TAP_TAPCELL_ROW_11_118
*1043 TAP_TAPCELL_ROW_11_119
*1044 TAP_TAPCELL_ROW_11_120
*1045 TAP_TAPCELL_ROW_11_121
*1046 TAP_TAPCELL_ROW_1_38
*1047 TAP_TAPCELL_ROW_1_39
*1048 TAP_TAPCELL_ROW_1_40
*1049 TAP_TAPCELL_ROW_1_41
*1050 TAP_TAPCELL_ROW_1_42
*1051 TAP_TAPCELL_ROW_1_43
*1052 TAP_TAPCELL_ROW_1_44
*1053 TAP_TAPCELL_ROW_2_45
*1054 TAP_TAPCELL_ROW_2_46
*1055 TAP_TAPCELL_ROW_2_47
*1056 TAP_TAPCELL_ROW_2_48
*1057 TAP_TAPCELL_ROW_2_49
*1058 TAP_TAPCELL_ROW_2_50
*1059 TAP_TAPCELL_ROW_2_51
*1060 TAP_TAPCELL_ROW_3_52
*1061 TAP_TAPCELL_ROW_3_53
*1062 TAP_TAPCELL_ROW_3_54
*1063 TAP_TAPCELL_ROW_3_55
*1064 TAP_TAPCELL_ROW_3_56
*1065 TAP_TAPCELL_ROW_3_57
*1066 TAP_TAPCELL_ROW_3_58
*1067 TAP_TAPCELL_ROW_4_59
*1068 TAP_TAPCELL_ROW_4_60
*1069 TAP_TAPCELL_ROW_4_61
*1070 TAP_TAPCELL_ROW_4_62
*1071 TAP_TAPCELL_ROW_4_63
*1072 TAP_TAPCELL_ROW_4_64
*1073 TAP_TAPCELL_ROW_4_65
*1074 TAP_TAPCELL_ROW_5_66
*1075 TAP_TAPCELL_ROW_5_67
*1076 TAP_TAPCELL_ROW_5_68
*1077 TAP_TAPCELL_ROW_5_69
*1078 TAP_TAPCELL_ROW_5_70
*1079 TAP_TAPCELL_ROW_5_71
*1080 TAP_TAPCELL_ROW_5_72
*1081 TAP_TAPCELL_ROW_6_73
*1082 TAP_TAPCELL_ROW_6_74
*1083 TAP_TAPCELL_ROW_6_75
*1084 TAP_TAPCELL_ROW_6_76
*1085 TAP_TAPCELL_ROW_6_77
*1086 TAP_TAPCELL_ROW_6_78
*1087 TAP_TAPCELL_ROW_6_79
*1088 TAP_TAPCELL_ROW_7_80
*1089 TAP_TAPCELL_ROW_7_81
*1090 TAP_TAPCELL_ROW_7_82
*1091 TAP_TAPCELL_ROW_7_83
*1092 TAP_TAPCELL_ROW_7_84
*1093 TAP_TAPCELL_ROW_7_85
*1094 TAP_TAPCELL_ROW_7_86
*1095 TAP_TAPCELL_ROW_8_87
*1096 TAP_TAPCELL_ROW_8_88
*1097 TAP_TAPCELL_ROW_8_89
*1098 TAP_TAPCELL_ROW_8_90
*1099 TAP_TAPCELL_ROW_8_91
*1100 TAP_TAPCELL_ROW_8_92
*1101 TAP_TAPCELL_ROW_8_93
*1102 TAP_TAPCELL_ROW_9_100
*1103 TAP_TAPCELL_ROW_9_94
*1104 TAP_TAPCELL_ROW_9_95
*1105 TAP_TAPCELL_ROW_9_96
*1106 TAP_TAPCELL_ROW_9_97
*1107 TAP_TAPCELL_ROW_9_98
*1108 TAP_TAPCELL_ROW_9_99
*1109 _000_
*1110 _001_
*1111 _002_
*1112 _003_
*1113 _004_
*1114 _005_
*1115 _006_
*1116 _007_
*1117 _008_
*1118 _009_
*1119 _010_
*1120 _011_
*1121 _012_
*1122 _013_
*1123 _014_
*1124 _015_
*1125 _016_
*1126 _017_
*1127 _018_
*1128 _019_
*1129 _020_
*1130 _021_
*1131 _022_
*1132 _023_
*1133 _024_
*1134 _025_
*1135 _026_
*1136 _027_
*1137 _028_
*1138 _029_
*1139 _030_
*1140 _031_
*1141 _032_
*1142 _033_
*1143 _034_
*1144 _035_
*1145 _036_
*1146 _037_
*1147 _038_
*1148 _039_
*1149 _040_
*1150 _041_
*1151 _042_
*1152 _043_
*1153 _044_
*1154 _045_
*1155 _046_
*1156 _047_
*1157 _048_
*1158 _049_
*1159 _050_
*1160 _051_
*1161 _052_
*1162 _053_
*1163 _054_
*1164 _055_
*1165 _056_
*1166 _057_
*1167 _058_
*1168 _059_
*1169 _060_
*1170 _061_
*1171 _062_
*1172 _063_
*1173 _064_
*1174 _065_
*1175 _066_
*1176 _067_
*1177 _068_
*1178 _069_
*1179 _070_
*1180 _071_
*1181 _072_
*1182 _073_
*1183 _074_
*1184 _075_
*1185 _076_
*1186 _077_
*1187 _078_
*1188 _079_
*1189 _080_
*1190 _081_
*1191 _082_
*1192 _083_
*1193 _084_
*1194 _085_
*1195 _086_
*1196 _087_
*1197 _088_
*1198 _089_
*1199 _090_
*1200 _091_
*1201 _092_
*1202 _093_
*1203 _094_
*1204 _095_
*1205 _096_
*1206 _097_
*1207 _098_
*1208 _099_
*1209 _100_
*1210 _101_
*1211 _102_
*1212 _103_
*1213 _104_
*1214 _105_
*1215 _106_
*1216 _107_
*1217 _108_
*1218 _109_
*1219 _110_
*1220 _111_
*1221 _112_
*1222 _113_
*1223 _114_
*1224 _115_
*1225 _116_
*1226 _117_
*1227 _118_
*1228 _119_
*1229 _120_
*1230 _121_
*1231 _122_
*1232 _123_
*1233 _124_
*1234 _125_
*1235 _126_
*1236 _127_
*1237 _128_
*1238 _129_
*1239 _130_
*1240 _131_
*1241 _132_
*1242 _133_
*1243 _134_
*1244 _135_
*1245 _136_
*1246 _137_
*1247 _138_
*1248 _139_
*1249 _140_
*1250 _141_
*1251 _142_
*1252 _143_
*1253 _144_
*1254 _145_
*1255 _146_
*1256 _147_
*1257 _148_
*1258 _149_
*1259 _150_
*1260 _151_
*1261 _152_
*1262 _153_
*1263 _154_
*1264 _155_
*1265 _157_
*1266 _158_
*1267 _159_
*1268 _160_
*1269 _161_
*1270 _162_
*1271 _163_
*1272 _164_
*1273 _165_
*1274 _166_
*1275 _167_
*1276 _168_
*1277 _169_
*1278 _170_
*1279 _171_
*1280 _172_
*1281 _173_
*1282 _174_
*1283 _175_
*1284 _176_
*1285 _177_
*1286 _178_
*1287 _179_
*1288 _180_
*1289 _181_
*1290 _182_
*1291 _183_
*1292 _184_
*1293 _185_
*1294 _186_
*1295 _187_
*1296 _188_
*1297 _189_
*1298 _190_
*1299 _191_
*1300 _192_
*1301 _193_
*1302 _194_
*1303 _195_
*1304 _196_
*1305 _197_
*1306 _198_
*1307 _199_
*1308 _200_
*1309 _201_
*1310 _202_
*1311 _203_
*1312 _204_
*1313 _205_
*1314 _206_
*1315 _207_
*1316 _208_
*1317 _209_
*1318 _210_
*1319 _211_
*1320 _212_
*1321 _213_
*1322 _214_
*1323 _215_
*1324 _216_
*1325 _217_
*1326 _218_
*1327 _219_
*1328 _220_
*1329 _221_
*1330 _222_
*1331 _223_
*1332 _224_
*1333 _225_
*1334 _226_
*1335 _227_
*1336 _228_
*1337 _229_
*1338 _230_
*1339 _231_
*1340 _232_
*1341 _233_
*1342 _234_
*1343 _235_
*1344 _236_
*1345 _237_
*1346 _238_
*1347 _239_
*1348 _240_
*1349 _241_
*1350 _242_
*1351 _243_
*1352 _244_
*1353 _245_
*1354 _246_
*1355 _247_
*1356 _248_
*1357 _249_
*1358 _250_
*1359 _251_
*1360 _252_
*1361 _253_
*1362 _254_
*1363 _255_
*1364 _256_
*1365 _257_
*1366 _258_
*1367 _259_
*1368 _260_
*1369 _261_
*1370 fanout35
*1371 fanout36
*1372 fanout37
*1373 fanout38
*1374 fanout39
*1375 fanout40
*1376 fanout41
*1377 fanout42
*1378 fanout43
*1379 fanout44
*1380 fanout45
*1381 input1
*1382 input10
*1383 input100
*1384 input11
*1385 input12
*1386 input13
*1387 input14
*1388 input15
*1389 input16
*1390 input17
*1391 input18
*1392 input19
*1393 input2
*1394 input20
*1395 input21
*1396 input22
*1397 input23
*1398 input24
*1399 input25
*1400 input26
*1401 input27
*1402 input28
*1403 input29
*1404 input3
*1405 input30
*1406 input31
*1407 input32
*1408 input33
*1409 input34
*1410 input35
*1411 input36
*1412 input37
*1413 input38
*1414 input39
*1415 input4
*1416 input40
*1417 input41
*1418 input42
*1419 input43
*1420 input44
*1421 input45
*1422 input46
*1423 input47
*1424 input48
*1425 input49
*1426 input5
*1427 input50
*1428 input51
*1429 input52
*1430 input53
*1431 input54
*1432 input55
*1433 input56
*1434 input57
*1435 input58
*1436 input59
*1437 input6
*1438 input60
*1439 input61
*1440 input62
*1441 input63
*1442 input64
*1443 input65
*1444 input66
*1445 input67
*1446 input68
*1447 input69
*1448 input7
*1449 input70
*1450 input71
*1451 input72
*1452 input73
*1453 input74
*1454 input75
*1455 input76
*1456 input77
*1457 input78
*1458 input79
*1459 input8
*1460 input80
*1461 input81
*1462 input82
*1463 input83
*1464 input84
*1465 input85
*1466 input86
*1467 input87
*1468 input88
*1469 input89
*1470 input9
*1471 input90
*1472 input91
*1473 input92
*1474 input93
*1475 input94
*1476 input95
*1477 input96
*1478 input97
*1479 input98
*1480 input99
*1481 output101
*1482 output102
*1483 output103
*1484 output104
*1485 output105
*1486 output106
*1487 output107
*1488 output108
*1489 output109
*1490 output110
*1491 output111
*1492 output112
*1493 output113
*1494 output114
*1495 output115
*1496 output116
*1497 output117
*1498 output118
*1499 output119
*1500 output120
*1501 output121
*1502 output122
*1503 output123
*1504 output124
*1505 output125
*1506 output126
*1507 output127
*1508 output128
*1509 output129
*1510 output130
*1511 output131
*1512 output132
*1513 output133
*1514 output134
*1515 output135
*1516 output136
*1517 output137
*1518 output138
*1519 output139
*1520 output140
*1521 output141
*1522 output142
*1523 output143
*1524 output144
*1525 output145
*1526 output146
*1527 output147
*1528 output148
*1529 output149
*1530 output150
*1531 output151
*1532 output152
*1533 output153
*1534 output154
*1535 output155
*1536 output156
*1537 output157
*1538 output158
*1539 output159
*1540 output160
*1541 output161
*1542 output162
*1543 output163
*1544 output164
*1545 output165
*1546 output166
*1547 output167
*1548 output168
*1549 output169
*1550 output170
*1551 output171
*1552 output172
*1553 output173
*1554 output174
*1555 output175
*1556 output176
*1557 output177
*1558 output178
*1559 output179
*1560 output180
*1561 output181
*1562 output182
*1563 output183
*1564 output184
*1565 output185
*1566 output186
*1567 output187
*1568 output188
*1569 output189
*1570 output190
*1571 output191
*1572 output192
*1573 output193
*1574 output194
*1575 output195
*1576 output196
*1577 output197
*1578 output198
*1579 output199
*1580 output200
*1581 output201
*1582 output202
*1583 output203
*1584 output204
*1585 output205
*1586 output206
*1587 output207
*1588 output208