* NGSPICE file created from W_IO.ext - technology: ihp-sg13g2

* Black-box entry subcircuit for sg13g2_decap_8 abstract view
.subckt sg13g2_decap_8 VDD VSS
.ends

* Black-box entry subcircuit for sg13g2_buf_1 abstract view
.subckt sg13g2_buf_1 A X VDD VSS
.ends

* Black-box entry subcircuit for sg13g2_fill_1 abstract view
.subckt sg13g2_fill_1 VDD VSS
.ends

* Black-box entry subcircuit for sg13g2_dlhq_1 abstract view
.subckt sg13g2_dlhq_1 D GATE Q VDD VSS
.ends

* Black-box entry subcircuit for sg13g2_nand2b_1 abstract view
.subckt sg13g2_nand2b_1 Y B A_N VDD VSS
.ends

* Black-box entry subcircuit for sg13g2_mux4_1 abstract view
.subckt sg13g2_mux4_1 S0 A0 A1 A2 A3 S1 X VDD VSS
.ends

* Black-box entry subcircuit for sg13g2_fill_2 abstract view
.subckt sg13g2_fill_2 VDD VSS
.ends

* Black-box entry subcircuit for sg13g2_decap_4 abstract view
.subckt sg13g2_decap_4 VDD VSS
.ends

* Black-box entry subcircuit for sg13g2_mux2_1 abstract view
.subckt sg13g2_mux2_1 A0 A1 S X VDD VSS
.ends

* Black-box entry subcircuit for sg13g2_o21ai_1 abstract view
.subckt sg13g2_o21ai_1 B1 VDD Y VSS A1 A2
.ends

* Black-box entry subcircuit for sg13g2_tiehi abstract view
.subckt sg13g2_tiehi VDD VSS L_HI
.ends

* Black-box entry subcircuit for sg13g2_nor2b_1 abstract view
.subckt sg13g2_nor2b_1 A B_N Y VDD VSS
.ends

* Black-box entry subcircuit for sg13g2_a21oi_1 abstract view
.subckt sg13g2_a21oi_1 VSS VDD A1 A2 Y B1
.ends

* Black-box entry subcircuit for sg13g2_nand2_1 abstract view
.subckt sg13g2_nand2_1 Y A B VDD VSS
.ends

* Black-box entry subcircuit for sg13g2_a221oi_1 abstract view
.subckt sg13g2_a221oi_1 VSS VDD B2 C1 B1 A1 Y A2
.ends

* Black-box entry subcircuit for sg13g2_or2_1 abstract view
.subckt sg13g2_or2_1 VSS VDD X B A
.ends

* Black-box entry subcircuit for sg13g2_inv_1 abstract view
.subckt sg13g2_inv_1 VDD Y A VSS
.ends

* Black-box entry subcircuit for sg13g2_dfrbp_1 abstract view
.subckt sg13g2_dfrbp_1 CLK RESET_B D Q_N Q VDD VSS
.ends

* Black-box entry subcircuit for sg13g2_nand4_1 abstract view
.subckt sg13g2_nand4_1 B C A Y VDD VSS D
.ends

* Black-box entry subcircuit for sg13g2_nand3b_1 abstract view
.subckt sg13g2_nand3b_1 B C Y VDD VSS A_N
.ends

* Black-box entry subcircuit for sg13g2_nand3_1 abstract view
.subckt sg13g2_nand3_1 B C A Y VDD VSS
.ends

.subckt W_IO A_I_top A_O_top A_T_top A_config_C_bit0 A_config_C_bit1 A_config_C_bit2
+ A_config_C_bit3 B_I_top B_O_top B_T_top B_config_C_bit0 B_config_C_bit1 B_config_C_bit2
+ B_config_C_bit3 E1BEG[0] E1BEG[1] E1BEG[2] E1BEG[3] E2BEG[0] E2BEG[1] E2BEG[2] E2BEG[3]
+ E2BEG[4] E2BEG[5] E2BEG[6] E2BEG[7] E2BEGb[0] E2BEGb[1] E2BEGb[2] E2BEGb[3] E2BEGb[4]
+ E2BEGb[5] E2BEGb[6] E2BEGb[7] E6BEG[0] E6BEG[10] E6BEG[11] E6BEG[1] E6BEG[2] E6BEG[3]
+ E6BEG[4] E6BEG[5] E6BEG[6] E6BEG[7] E6BEG[8] E6BEG[9] EE4BEG[0] EE4BEG[10] EE4BEG[11]
+ EE4BEG[12] EE4BEG[13] EE4BEG[14] EE4BEG[15] EE4BEG[1] EE4BEG[2] EE4BEG[3] EE4BEG[4]
+ EE4BEG[5] EE4BEG[6] EE4BEG[7] EE4BEG[8] EE4BEG[9] FrameData[0] FrameData[10] FrameData[11]
+ FrameData[12] FrameData[13] FrameData[14] FrameData[15] FrameData[16] FrameData[17]
+ FrameData[18] FrameData[19] FrameData[1] FrameData[20] FrameData[21] FrameData[22]
+ FrameData[23] FrameData[24] FrameData[25] FrameData[26] FrameData[27] FrameData[28]
+ FrameData[29] FrameData[2] FrameData[30] FrameData[31] FrameData[3] FrameData[4]
+ FrameData[5] FrameData[6] FrameData[7] FrameData[8] FrameData[9] FrameData_O[0]
+ FrameData_O[10] FrameData_O[11] FrameData_O[12] FrameData_O[13] FrameData_O[14]
+ FrameData_O[15] FrameData_O[16] FrameData_O[17] FrameData_O[18] FrameData_O[19]
+ FrameData_O[1] FrameData_O[20] FrameData_O[21] FrameData_O[22] FrameData_O[23] FrameData_O[24]
+ FrameData_O[25] FrameData_O[26] FrameData_O[27] FrameData_O[28] FrameData_O[29]
+ FrameData_O[2] FrameData_O[30] FrameData_O[31] FrameData_O[3] FrameData_O[4] FrameData_O[5]
+ FrameData_O[6] FrameData_O[7] FrameData_O[8] FrameData_O[9] FrameStrobe[0] FrameStrobe[10]
+ FrameStrobe[11] FrameStrobe[12] FrameStrobe[13] FrameStrobe[14] FrameStrobe[15]
+ FrameStrobe[16] FrameStrobe[17] FrameStrobe[18] FrameStrobe[19] FrameStrobe[1] FrameStrobe[2]
+ FrameStrobe[3] FrameStrobe[4] FrameStrobe[5] FrameStrobe[6] FrameStrobe[7] FrameStrobe[8]
+ FrameStrobe[9] FrameStrobe_O[0] FrameStrobe_O[10] FrameStrobe_O[11] FrameStrobe_O[12]
+ FrameStrobe_O[13] FrameStrobe_O[14] FrameStrobe_O[15] FrameStrobe_O[16] FrameStrobe_O[17]
+ FrameStrobe_O[18] FrameStrobe_O[19] FrameStrobe_O[1] FrameStrobe_O[2] FrameStrobe_O[3]
+ FrameStrobe_O[4] FrameStrobe_O[5] FrameStrobe_O[6] FrameStrobe_O[7] FrameStrobe_O[8]
+ FrameStrobe_O[9] UserCLK UserCLKo VGND VPWR W1END[0] W1END[1] W1END[2] W1END[3]
+ W2END[0] W2END[1] W2END[2] W2END[3] W2END[4] W2END[5] W2END[6] W2END[7] W2MID[0]
+ W2MID[1] W2MID[2] W2MID[3] W2MID[4] W2MID[5] W2MID[6] W2MID[7] W6END[0] W6END[10]
+ W6END[11] W6END[1] W6END[2] W6END[3] W6END[4] W6END[5] W6END[6] W6END[7] W6END[8]
+ W6END[9] WW4END[0] WW4END[10] WW4END[11] WW4END[12] WW4END[13] WW4END[14] WW4END[15]
+ WW4END[1] WW4END[2] WW4END[3] WW4END[4] WW4END[5] WW4END[6] WW4END[7] WW4END[8]
+ WW4END[9]
XFILLER_52_18 VPWR VGND sg13g2_decap_8
X_363_ Inst_W_IO_switch_matrix.E2BEG0 net122 VPWR VGND sg13g2_buf_1
X_294_ Inst_W_IO_switch_matrix.EE4BEG4 net160 VPWR VGND sg13g2_buf_1
XFILLER_47_18 VPWR VGND sg13g2_decap_8
X_346_ FrameStrobe[8] net216 VPWR VGND sg13g2_buf_1
XFILLER_37_84 VPWR VGND sg13g2_fill_1
XFILLER_5_4 VPWR VGND sg13g2_decap_8
XFILLER_10_114 VPWR VGND sg13g2_fill_1
X_277_ Inst_W_IO_switch_matrix.E2BEGb7 net137 VPWR VGND sg13g2_buf_1
X_200_ net29 net79 Inst_W_IO_ConfigMem.Inst_frame1_bit4.Q VPWR VGND sg13g2_dlhq_1
X_131_ _032_ Inst_W_IO_ConfigMem.Inst_frame0_bit24.Q net42 VPWR VGND sg13g2_nand2b_1
X_062_ net66 net47 net48 net49 net50 Inst_W_IO_ConfigMem.Inst_frame0_bit26.Q _013_
+ VPWR VGND sg13g2_mux4_1
XFILLER_2_110 VPWR VGND sg13g2_fill_1
XFILLER_0_46 VPWR VGND sg13g2_decap_8
XFILLER_9_11 VPWR VGND sg13g2_decap_8
X_329_ net18 net181 VPWR VGND sg13g2_buf_1
XFILLER_59_93 VPWR VGND sg13g2_fill_2
X_114_ Inst_W_IO_ConfigMem.Inst_frame2_bit18.Q net42 net99 net92 net60 Inst_W_IO_ConfigMem.Inst_frame2_bit19.Q
+ Inst_W_IO_switch_matrix.E2BEGb4 VPWR VGND sg13g2_mux4_1
XFILLER_22_7 VPWR VGND sg13g2_decap_8
XFILLER_55_18 VPWR VGND sg13g2_decap_8
XFILLER_53_109 VPWR VGND sg13g2_fill_2
XFILLER_29_117 VPWR VGND sg13g2_fill_2
XFILLER_45_73 VPWR VGND sg13g2_decap_8
XFILLER_20_4 VPWR VGND sg13g2_decap_8
XFILLER_31_86 VPWR VGND sg13g2_fill_2
Xoutput86 net109 A_config_C_bit1 VPWR VGND sg13g2_buf_1
Xoutput97 net120 E1BEG[2] VPWR VGND sg13g2_buf_1
X_293_ Inst_W_IO_switch_matrix.EE4BEG3 net159 VPWR VGND sg13g2_buf_1
XFILLER_26_75 VPWR VGND sg13g2_decap_4
X_362_ Inst_W_IO_switch_matrix.E1BEG3 net121 VPWR VGND sg13g2_buf_1
XFILLER_12_11 VPWR VGND sg13g2_fill_2
XFILLER_12_55 VPWR VGND sg13g2_decap_8
X_345_ FrameStrobe[7] net215 VPWR VGND sg13g2_buf_1
XFILLER_53_95 VPWR VGND sg13g2_decap_8
X_276_ Inst_W_IO_switch_matrix.E2BEGb6 net136 VPWR VGND sg13g2_buf_1
XFILLER_58_29 VPWR VGND sg13g2_decap_8
X_130_ net38 net1 Inst_W_IO_ConfigMem.Inst_frame3_bit22.Q Inst_W_IO_switch_matrix.E1BEG0
+ VPWR VGND sg13g2_mux2_1
X_259_ net27 net84 Inst_W_IO_ConfigMem.Inst_frame0_bit31.Q VPWR VGND sg13g2_dlhq_1
X_061_ Inst_W_IO_ConfigMem.Inst_frame0_bit28.Q VPWR _012_ VGND _008_ _011_ sg13g2_o21ai_1
X_328_ net17 net180 VPWR VGND sg13g2_buf_1
XFILLER_0_25 VPWR VGND sg13g2_decap_8
XFILLER_34_75 VPWR VGND sg13g2_fill_2
X_113_ Inst_W_IO_ConfigMem.Inst_frame2_bit20.Q net41 net98 net91 net59 Inst_W_IO_ConfigMem.Inst_frame2_bit21.Q
+ Inst_W_IO_switch_matrix.E2BEGb5 VPWR VGND sg13g2_mux4_1
XFILLER_18_98 VPWR VGND sg13g2_fill_2
XFILLER_29_64 VPWR VGND sg13g2_decap_4
XFILLER_20_11 VPWR VGND sg13g2_decap_8
XFILLER_43_110 VPWR VGND sg13g2_fill_1
XFILLER_13_4 VPWR VGND sg13g2_decap_8
XFILLER_25_110 VPWR VGND sg13g2_fill_1
XFILLER_15_11 VPWR VGND sg13g2_decap_8
XFILLER_56_95 VPWR VGND sg13g2_fill_2
Xoutput98 net121 E1BEG[3] VPWR VGND sg13g2_buf_1
Xoutput87 net110 A_config_C_bit2 VPWR VGND sg13g2_buf_1
X_292_ Inst_W_IO_switch_matrix.EE4BEG2 net158 VPWR VGND sg13g2_buf_1
XFILLER_26_32 VPWR VGND sg13g2_fill_1
X_361_ Inst_W_IO_switch_matrix.E1BEG2 net120 VPWR VGND sg13g2_buf_1
X_344_ FrameStrobe[6] net214 VPWR VGND sg13g2_buf_1
XFILLER_53_74 VPWR VGND sg13g2_decap_8
XFILLER_37_75 VPWR VGND sg13g2_decap_8
X_275_ Inst_W_IO_switch_matrix.E2BEGb5 net135 VPWR VGND sg13g2_buf_1
XFILLER_59_105 VPWR VGND sg13g2_fill_2
XFILLER_23_55 VPWR VGND sg13g2_fill_1
X_060_ Inst_W_IO_ConfigMem.Inst_frame0_bit27.Q VPWR _011_ VGND _009_ _010_ sg13g2_o21ai_1
XFILLER_43_4 VPWR VGND sg13g2_decap_8
X_258_ net26 net84 Inst_W_IO_ConfigMem.Inst_frame0_bit30.Q VPWR VGND sg13g2_dlhq_1
X_189_ net20 net72 Inst_W_IO_ConfigMem.Inst_frame2_bit25.Q VPWR VGND sg13g2_dlhq_1
X_327_ net16 net179 VPWR VGND sg13g2_buf_1
XFILLER_50_42 VPWR VGND sg13g2_decap_8
XFILLER_34_21 VPWR VGND sg13g2_decap_8
X_112_ Inst_W_IO_ConfigMem.Inst_frame2_bit22.Q net40 net97 net105 net58 Inst_W_IO_ConfigMem.Inst_frame2_bit23.Q
+ Inst_W_IO_switch_matrix.E2BEGb6 VPWR VGND sg13g2_mux4_1
XFILLER_59_51 VPWR VGND sg13g2_fill_2
XFILLER_50_97 VPWR VGND sg13g2_decap_4
XFILLER_34_0 VPWR VGND sg13g2_decap_8
XFILLER_20_56 VPWR VGND sg13g2_fill_1
XFILLER_6_14 VPWR VGND sg13g2_decap_8
XFILLER_6_25 VPWR VGND sg13g2_fill_1
XFILLER_56_74 VPWR VGND sg13g2_decap_8
XFILLER_31_88 VPWR VGND sg13g2_fill_1
XFILLER_31_33 VPWR VGND sg13g2_fill_2
Xoutput99 net122 E2BEG[0] VPWR VGND sg13g2_buf_1
Xoutput88 net111 A_config_C_bit3 VPWR VGND sg13g2_buf_1
XFILLER_15_56 VPWR VGND sg13g2_fill_2
XFILLER_15_67 VPWR VGND sg13g2_fill_2
X_291_ Inst_W_IO_switch_matrix.EE4BEG1 net157 VPWR VGND sg13g2_buf_1
XFILLER_42_21 VPWR VGND sg13g2_fill_1
X_360_ Inst_W_IO_switch_matrix.E1BEG1 net119 VPWR VGND sg13g2_buf_1
X_343_ FrameStrobe[5] net213 VPWR VGND sg13g2_buf_1
XFILLER_53_53 VPWR VGND sg13g2_decap_8
XFILLER_38_7 VPWR VGND sg13g2_decap_8
X_274_ Inst_W_IO_switch_matrix.E2BEGb4 net134 VPWR VGND sg13g2_buf_1
XFILLER_23_34 VPWR VGND sg13g2_decap_8
XFILLER_3_4 VPWR VGND sg13g2_decap_8
XFILLER_36_4 VPWR VGND sg13g2_decap_8
X_257_ net24 net84 Inst_W_IO_ConfigMem.Inst_frame0_bit29.Q VPWR VGND sg13g2_dlhq_1
X_188_ net19 net72 Inst_W_IO_ConfigMem.Inst_frame2_bit24.Q VPWR VGND sg13g2_dlhq_1
XFILLER_9_36 VPWR VGND sg13g2_fill_1
X_326_ net15 net178 VPWR VGND sg13g2_buf_1
XFILLER_34_77 VPWR VGND sg13g2_fill_1
XFILLER_59_63 VPWR VGND sg13g2_fill_2
XFILLER_50_21 VPWR VGND sg13g2_decap_8
X_309_ net28 net191 VPWR VGND sg13g2_buf_1
X_111_ Inst_W_IO_ConfigMem.Inst_frame2_bit24.Q net39 net90 net104 net55 Inst_W_IO_ConfigMem.Inst_frame2_bit25.Q
+ Inst_W_IO_switch_matrix.E2BEGb7 VPWR VGND sg13g2_mux4_1
XFILLER_1_81 VPWR VGND sg13g2_decap_8
XFILLER_29_11 VPWR VGND sg13g2_decap_8
Xoutput89 net112 B_I_top VPWR VGND sg13g2_buf_1
XFILLER_56_53 VPWR VGND sg13g2_decap_8
XFILLER_22_104 VPWR VGND sg13g2_fill_2
X_290_ Inst_W_IO_switch_matrix.EE4BEG0 net150 VPWR VGND sg13g2_buf_1
X_342_ FrameStrobe[4] net212 VPWR VGND sg13g2_buf_1
XFILLER_53_32 VPWR VGND sg13g2_decap_8
X_273_ Inst_W_IO_switch_matrix.E2BEGb3 net133 VPWR VGND sg13g2_buf_1
XFILLER_37_11 VPWR VGND sg13g2_decap_8
XFILLER_50_7 VPWR VGND sg13g2_decap_8
Xfanout80 net82 net80 VPWR VGND sg13g2_buf_1
XFILLER_29_4 VPWR VGND sg13g2_decap_8
XFILLER_0_39 VPWR VGND sg13g2_decap_8
X_187_ net18 net72 Inst_W_IO_ConfigMem.Inst_frame2_bit23.Q VPWR VGND sg13g2_dlhq_1
X_256_ net23 net83 Inst_W_IO_ConfigMem.Inst_frame0_bit28.Q VPWR VGND sg13g2_dlhq_1
X_325_ net13 net176 VPWR VGND sg13g2_buf_1
XFILLER_18_79 VPWR VGND sg13g2_fill_2
XFILLER_59_75 VPWR VGND sg13g2_fill_2
X_110_ Inst_W_IO_ConfigMem.Inst_frame2_bit27.Q net55 net61 net59 net1 Inst_W_IO_ConfigMem.Inst_frame2_bit26.Q
+ Inst_W_IO_switch_matrix.EE4BEG0 VPWR VGND sg13g2_mux4_1
XFILLER_34_56 VPWR VGND sg13g2_fill_2
XFILLER_52_102 VPWR VGND sg13g2_decap_4
X_239_ net5 net85 Inst_W_IO_ConfigMem.Inst_frame0_bit11.Q VPWR VGND sg13g2_dlhq_1
X_308_ net25 net188 VPWR VGND sg13g2_buf_1
XFILLER_45_66 VPWR VGND sg13g2_decap_8
XFILLER_45_11 VPWR VGND sg13g2_decap_8
XFILLER_31_35 VPWR VGND sg13g2_fill_1
XFILLER_56_32 VPWR VGND sg13g2_decap_8
XFILLER_11_4 VPWR VGND sg13g2_decap_8
XFILLER_26_79 VPWR VGND sg13g2_fill_1
XFILLER_59_4 VPWR VGND sg13g2_fill_1
XFILLER_53_88 VPWR VGND sg13g2_decap_8
XFILLER_53_11 VPWR VGND sg13g2_decap_8
X_272_ Inst_W_IO_switch_matrix.E2BEGb2 net132 VPWR VGND sg13g2_buf_1
XFILLER_12_37 VPWR VGND sg13g2_decap_4
X_341_ net71 net211 VPWR VGND sg13g2_buf_1
XFILLER_48_99 VPWR VGND sg13g2_fill_2
XFILLER_48_11 VPWR VGND sg13g2_decap_8
Xfanout81 net82 net81 VPWR VGND sg13g2_buf_1
X_324_ net12 net175 VPWR VGND sg13g2_buf_1
Xfanout70 net71 net70 VPWR VGND sg13g2_buf_1
X_186_ net17 net72 Inst_W_IO_ConfigMem.Inst_frame2_bit22.Q VPWR VGND sg13g2_dlhq_1
XFILLER_0_18 VPWR VGND sg13g2_decap_8
X_255_ net22 net83 Inst_W_IO_ConfigMem.Inst_frame0_bit27.Q VPWR VGND sg13g2_dlhq_1
XFILLER_59_87 VPWR VGND sg13g2_fill_2
XFILLER_59_21 VPWR VGND sg13g2_fill_2
XFILLER_55_100 VPWR VGND sg13g2_fill_2
X_307_ net14 net177 VPWR VGND sg13g2_buf_1
XFILLER_41_4 VPWR VGND sg13g2_decap_8
X_238_ net4 net85 Inst_W_IO_ConfigMem.Inst_frame0_bit10.Q VPWR VGND sg13g2_dlhq_1
X_169_ net30 net73 Inst_W_IO_ConfigMem.Inst_frame2_bit5.Q VPWR VGND sg13g2_dlhq_1
XFILLER_20_37 VPWR VGND sg13g2_fill_1
XFILLER_19_90 VPWR VGND sg13g2_fill_1
XFILLER_56_88 VPWR VGND sg13g2_decap_8
XFILLER_56_11 VPWR VGND sg13g2_decap_8
XFILLER_31_106 VPWR VGND sg13g2_fill_1
XFILLER_7_82 VPWR VGND sg13g2_decap_8
XFILLER_42_46 VPWR VGND sg13g2_decap_8
XFILLER_3_18 VPWR VGND sg13g2_fill_2
XFILLER_12_49 VPWR VGND sg13g2_fill_1
XFILLER_53_67 VPWR VGND sg13g2_decap_8
X_271_ Inst_W_IO_switch_matrix.E2BEGb1 net131 VPWR VGND sg13g2_buf_1
X_340_ net77 net210 VPWR VGND sg13g2_buf_1
XFILLER_5_102 VPWR VGND sg13g2_decap_8
XFILLER_23_48 VPWR VGND sg13g2_decap_8
X_323_ net11 net174 VPWR VGND sg13g2_buf_1
Xfanout82 FrameStrobe[1] net82 VPWR VGND sg13g2_buf_1
X_185_ net16 net72 Inst_W_IO_ConfigMem.Inst_frame2_bit21.Q VPWR VGND sg13g2_dlhq_1
Xfanout71 FrameStrobe[3] net71 VPWR VGND sg13g2_buf_1
X_254_ net21 net84 Inst_W_IO_ConfigMem.Inst_frame0_bit26.Q VPWR VGND sg13g2_dlhq_1
XFILLER_59_33 VPWR VGND sg13g2_fill_2
XFILLER_50_35 VPWR VGND sg13g2_decap_8
XFILLER_34_14 VPWR VGND sg13g2_decap_8
XFILLER_1_4 VPWR VGND sg13g2_decap_8
XFILLER_59_99 VPWR VGND sg13g2_fill_2
X_099_ Inst_W_IO_ConfigMem.Inst_frame1_bit17.Q net63 net56 net65 net2 Inst_W_IO_ConfigMem.Inst_frame1_bit16.Q
+ Inst_W_IO_switch_matrix.EE4BEG11 VPWR VGND sg13g2_mux4_1
X_306_ net3 net166 VPWR VGND sg13g2_buf_1
X_168_ net29 net73 Inst_W_IO_ConfigMem.Inst_frame2_bit4.Q VPWR VGND sg13g2_dlhq_1
X_237_ net34 net86 Inst_W_IO_ConfigMem.Inst_frame0_bit9.Q VPWR VGND sg13g2_dlhq_1
XFILLER_29_25 VPWR VGND sg13g2_decap_4
XFILLER_1_95 VPWR VGND sg13g2_decap_8
XFILLER_19_112 VPWR VGND sg13g2_fill_2
XFILLER_56_67 VPWR VGND sg13g2_decap_8
XFILLER_31_15 VPWR VGND sg13g2_fill_1
XFILLER_42_14 VPWR VGND sg13g2_decap_8
XFILLER_53_46 VPWR VGND sg13g2_decap_8
XFILLER_37_25 VPWR VGND sg13g2_decap_4
X_270_ Inst_W_IO_switch_matrix.E2BEGb0 net130 VPWR VGND sg13g2_buf_1
XFILLER_4_95 VPWR VGND sg13g2_decap_8
X_322_ net10 net173 VPWR VGND sg13g2_buf_1
XFILLER_23_27 VPWR VGND sg13g2_decap_8
XFILLER_2_106 VPWR VGND sg13g2_decap_4
XFILLER_9_18 VPWR VGND sg13g2_fill_1
Xfanout72 net75 net72 VPWR VGND sg13g2_buf_1
X_184_ net15 net72 Inst_W_IO_ConfigMem.Inst_frame2_bit20.Q VPWR VGND sg13g2_dlhq_1
Xfanout83 net84 net83 VPWR VGND sg13g2_buf_1
X_253_ net20 net83 Inst_W_IO_ConfigMem.Inst_frame0_bit25.Q VPWR VGND sg13g2_dlhq_1
XFILLER_55_102 VPWR VGND sg13g2_fill_1
XFILLER_50_14 VPWR VGND sg13g2_decap_8
XFILLER_59_45 VPWR VGND sg13g2_fill_2
XFILLER_40_91 VPWR VGND sg13g2_fill_2
X_098_ Inst_W_IO_ConfigMem.Inst_frame1_bit19.Q net58 net62 net60 Inst_A_IO_1_bidirectional_frame_config_pass.Q
+ Inst_W_IO_ConfigMem.Inst_frame1_bit18.Q Inst_W_IO_switch_matrix.EE4BEG12 VPWR VGND
+ sg13g2_mux4_1
X_167_ net28 net74 Inst_W_IO_ConfigMem.Inst_frame2_bit3.Q VPWR VGND sg13g2_dlhq_1
X_305_ Inst_W_IO_switch_matrix.EE4BEG15 net156 VPWR VGND sg13g2_buf_1
X_236_ net33 net86 Inst_W_IO_ConfigMem.Inst_frame0_bit8.Q VPWR VGND sg13g2_dlhq_1
XFILLER_27_4 VPWR VGND sg13g2_decap_8
XFILLER_1_74 VPWR VGND sg13g2_decap_8
XFILLER_1_52 VPWR VGND sg13g2_decap_8
XFILLER_45_25 VPWR VGND sg13g2_decap_4
XFILLER_34_116 VPWR VGND sg13g2_fill_2
X_219_ net18 net79 Inst_W_IO_ConfigMem.Inst_frame1_bit23.Q VPWR VGND sg13g2_dlhq_1
XFILLER_18_0 VPWR VGND sg13g2_decap_8
XFILLER_56_46 VPWR VGND sg13g2_decap_8
XFILLER_21_60 VPWR VGND sg13g2_decap_8
XFILLER_7_40 VPWR VGND sg13g2_fill_1
XFILLER_32_81 VPWR VGND sg13g2_decap_8
XFILLER_8_101 VPWR VGND sg13g2_fill_2
XFILLER_53_25 VPWR VGND sg13g2_decap_8
XFILLER_57_4 VPWR VGND sg13g2_decap_8
XFILLER_48_25 VPWR VGND sg13g2_fill_2
Xfanout73 net75 net73 VPWR VGND sg13g2_buf_1
X_183_ net13 net72 Inst_W_IO_ConfigMem.Inst_frame2_bit19.Q VPWR VGND sg13g2_dlhq_1
X_252_ net19 net83 Inst_W_IO_ConfigMem.Inst_frame0_bit24.Q VPWR VGND sg13g2_dlhq_1
Xfanout84 net88 net84 VPWR VGND sg13g2_buf_1
X_321_ net9 net172 VPWR VGND sg13g2_buf_1
XFILLER_34_49 VPWR VGND sg13g2_decap_8
XFILLER_59_57 VPWR VGND sg13g2_fill_2
X_235_ net32 net87 Inst_W_IO_ConfigMem.Inst_frame0_bit7.Q VPWR VGND sg13g2_dlhq_1
X_304_ Inst_W_IO_switch_matrix.EE4BEG14 net155 VPWR VGND sg13g2_buf_1
XFILLER_52_106 VPWR VGND sg13g2_fill_1
X_097_ Inst_W_IO_ConfigMem.Inst_frame1_bit21.Q net64 net57 net89 Inst_B_IO_1_bidirectional_frame_config_pass.Q
+ Inst_W_IO_ConfigMem.Inst_frame1_bit20.Q Inst_W_IO_switch_matrix.EE4BEG13 VPWR VGND
+ sg13g2_mux4_1
X_260__196 VPWR VGND net219 sg13g2_tiehi
X_166_ net25 net75 Inst_W_IO_ConfigMem.Inst_frame2_bit2.Q VPWR VGND sg13g2_dlhq_1
XFILLER_1_64 VPWR VGND sg13g2_decap_4
XFILLER_20_18 VPWR VGND sg13g2_fill_2
XFILLER_45_59 VPWR VGND sg13g2_decap_8
XFILLER_10_73 VPWR VGND sg13g2_fill_1
X_149_ net11 net68 net111 VPWR VGND sg13g2_dlhq_1
X_218_ net17 net79 Inst_W_IO_ConfigMem.Inst_frame1_bit22.Q VPWR VGND sg13g2_dlhq_1
XFILLER_19_114 VPWR VGND sg13g2_fill_1
XFILLER_56_25 VPWR VGND sg13g2_decap_8
XFILLER_30_0 VPWR VGND sg13g2_decap_8
XFILLER_7_96 VPWR VGND sg13g2_decap_8
XFILLER_16_50 VPWR VGND sg13g2_fill_1
Xfanout74 net75 net74 VPWR VGND sg13g2_buf_1
Xfanout85 net87 net85 VPWR VGND sg13g2_buf_1
X_182_ net12 net72 Inst_W_IO_ConfigMem.Inst_frame2_bit18.Q VPWR VGND sg13g2_dlhq_1
X_251_ net18 net83 Inst_W_IO_ConfigMem.Inst_frame0_bit23.Q VPWR VGND sg13g2_dlhq_1
XFILLER_13_40 VPWR VGND sg13g2_decap_8
X_320_ net8 net171 VPWR VGND sg13g2_buf_1
XFILLER_54_91 VPWR VGND sg13g2_decap_8
XFILLER_59_69 VPWR VGND sg13g2_fill_2
XFILLER_34_28 VPWR VGND sg13g2_decap_4
X_165_ net14 net74 Inst_W_IO_ConfigMem.Inst_frame2_bit1.Q VPWR VGND sg13g2_dlhq_1
X_303_ Inst_W_IO_switch_matrix.EE4BEG13 net154 VPWR VGND sg13g2_buf_1
XFILLER_34_7 VPWR VGND sg13g2_decap_8
XFILLER_1_32 VPWR VGND sg13g2_decap_8
X_234_ net31 net87 Inst_W_IO_ConfigMem.Inst_frame0_bit6.Q VPWR VGND sg13g2_dlhq_1
X_096_ Inst_W_IO_ConfigMem.Inst_frame1_bit23.Q net47 net51 net49 net53 Inst_W_IO_ConfigMem.Inst_frame1_bit22.Q
+ Inst_W_IO_switch_matrix.EE4BEG14 VPWR VGND sg13g2_mux4_1
XFILLER_51_81 VPWR VGND sg13g2_decap_8
X_217_ net16 net80 Inst_W_IO_ConfigMem.Inst_frame1_bit21.Q VPWR VGND sg13g2_dlhq_1
XFILLER_34_118 VPWR VGND sg13g2_fill_1
X_148_ net10 net68 net110 VPWR VGND sg13g2_dlhq_1
X_079_ net67 net51 net52 net53 net54 Inst_W_IO_ConfigMem.Inst_frame0_bit19.Q _029_
+ VPWR VGND sg13g2_mux4_1
XFILLER_7_53 VPWR VGND sg13g2_decap_4
XFILLER_7_75 VPWR VGND sg13g2_decap_8
XFILLER_42_39 VPWR VGND sg13g2_decap_8
XFILLER_59_9 VPWR VGND sg13g2_fill_2
XFILLER_12_110 VPWR VGND sg13g2_fill_1
XFILLER_16_73 VPWR VGND sg13g2_decap_4
X_181_ net11 net74 Inst_W_IO_ConfigMem.Inst_frame2_bit17.Q VPWR VGND sg13g2_dlhq_1
Xfanout75 net77 net75 VPWR VGND sg13g2_buf_1
Xfanout86 net87 net86 VPWR VGND sg13g2_buf_1
X_250_ net17 net83 Inst_W_IO_ConfigMem.Inst_frame0_bit22.Q VPWR VGND sg13g2_dlhq_1
XFILLER_54_70 VPWR VGND sg13g2_decap_8
XFILLER_59_15 VPWR VGND sg13g2_fill_2
XFILLER_50_28 VPWR VGND sg13g2_decap_8
X_164_ net3 net75 Inst_W_IO_ConfigMem.Inst_frame2_bit0.Q VPWR VGND sg13g2_dlhq_1
X_302_ Inst_W_IO_switch_matrix.EE4BEG12 net153 VPWR VGND sg13g2_buf_1
X_095_ Inst_W_IO_ConfigMem.Inst_frame1_bit25.Q net48 net52 net50 net54 Inst_W_IO_ConfigMem.Inst_frame1_bit24.Q
+ Inst_W_IO_switch_matrix.EE4BEG15 VPWR VGND sg13g2_mux4_1
X_233_ net30 net88 Inst_W_IO_ConfigMem.Inst_frame0_bit5.Q VPWR VGND sg13g2_dlhq_1
XFILLER_1_88 VPWR VGND sg13g2_decap_8
XFILLER_1_11 VPWR VGND sg13g2_decap_8
XFILLER_29_29 VPWR VGND sg13g2_fill_1
XFILLER_29_18 VPWR VGND sg13g2_decap_8
XFILLER_10_20 VPWR VGND sg13g2_decap_4
XFILLER_51_60 VPWR VGND sg13g2_decap_8
X_216_ net15 net80 Inst_W_IO_ConfigMem.Inst_frame1_bit20.Q VPWR VGND sg13g2_dlhq_1
X_147_ net9 net68 net109 VPWR VGND sg13g2_dlhq_1
XFILLER_25_4 VPWR VGND sg13g2_decap_4
X_078_ Inst_W_IO_ConfigMem.Inst_frame0_bit18.Q net47 net48 net49 net50 Inst_W_IO_ConfigMem.Inst_frame0_bit19.Q
+ _028_ VPWR VGND sg13g2_mux4_1
XFILLER_21_41 VPWR VGND sg13g2_fill_2
XFILLER_46_71 VPWR VGND sg13g2_decap_8
XFILLER_7_32 VPWR VGND sg13g2_decap_4
XFILLER_37_18 VPWR VGND sg13g2_decap_8
XFILLER_53_39 VPWR VGND sg13g2_decap_8
X_180_ net10 net74 Inst_W_IO_ConfigMem.Inst_frame2_bit16.Q VPWR VGND sg13g2_dlhq_1
Xfanout76 net77 net76 VPWR VGND sg13g2_buf_1
Xfanout87 net88 net87 VPWR VGND sg13g2_buf_1
XFILLER_55_4 VPWR VGND sg13g2_decap_8
XFILLER_59_27 VPWR VGND sg13g2_fill_2
X_301_ Inst_W_IO_switch_matrix.EE4BEG11 net152 VPWR VGND sg13g2_buf_1
X_163_ net27 net70 Inst_W_IO_ConfigMem.Inst_frame3_bit31.Q VPWR VGND sg13g2_dlhq_1
X_094_ Inst_W_IO_ConfigMem.Inst_frame1_bit26.Q net37 net92 net57 net1 Inst_W_IO_ConfigMem.Inst_frame1_bit27.Q
+ Inst_W_IO_switch_matrix.E6BEG0 VPWR VGND sg13g2_mux4_1
X_232_ net29 net88 Inst_W_IO_ConfigMem.Inst_frame0_bit4.Q VPWR VGND sg13g2_dlhq_1
XFILLER_46_0 VPWR VGND sg13g2_decap_8
XFILLER_45_29 VPWR VGND sg13g2_fill_1
XFILLER_45_18 VPWR VGND sg13g2_decap_8
XFILLER_28_117 VPWR VGND sg13g2_fill_2
XFILLER_1_45 VPWR VGND sg13g2_decap_8
XFILLER_19_41 VPWR VGND sg13g2_fill_2
X_215_ net13 net80 Inst_W_IO_ConfigMem.Inst_frame1_bit19.Q VPWR VGND sg13g2_dlhq_1
X_146_ net8 net68 net108 VPWR VGND sg13g2_dlhq_1
X_077_ Inst_W_IO_ConfigMem.Inst_frame0_bit21.Q VPWR _027_ VGND _023_ _026_ sg13g2_o21ai_1
XFILLER_56_39 VPWR VGND sg13g2_decap_8
XFILLER_7_11 VPWR VGND sg13g2_decap_8
X_129_ net37 Inst_A_IO_1_bidirectional_frame_config_pass.Q Inst_W_IO_ConfigMem.Inst_frame3_bit23.Q
+ Inst_W_IO_switch_matrix.E1BEG1 VPWR VGND sg13g2_mux2_1
Xinput80 WW4END[7] net103 VPWR VGND sg13g2_buf_1
XFILLER_57_93 VPWR VGND sg13g2_fill_2
XFILLER_57_82 VPWR VGND sg13g2_decap_8
XFILLER_53_18 VPWR VGND sg13g2_decap_8
XFILLER_48_18 VPWR VGND sg13g2_decap_8
Xfanout77 FrameStrobe[2] net77 VPWR VGND sg13g2_buf_1
Xfanout66 Inst_W_IO_ConfigMem.Inst_frame0_bit25.Q net66 VPWR VGND sg13g2_buf_1
Xfanout88 FrameStrobe[0] net88 VPWR VGND sg13g2_buf_1
XFILLER_13_76 VPWR VGND sg13g2_fill_2
XFILLER_48_4 VPWR VGND sg13g2_decap_8
XFILLER_59_39 VPWR VGND sg13g2_fill_2
X_162_ net26 net70 Inst_W_IO_ConfigMem.Inst_frame3_bit30.Q VPWR VGND sg13g2_dlhq_1
X_300_ Inst_W_IO_switch_matrix.EE4BEG10 net151 VPWR VGND sg13g2_buf_1
X_231_ net28 net85 Inst_W_IO_ConfigMem.Inst_frame0_bit3.Q VPWR VGND sg13g2_dlhq_1
XFILLER_24_64 VPWR VGND sg13g2_decap_4
X_093_ Inst_W_IO_ConfigMem.Inst_frame1_bit28.Q net38 net91 net56 net2 Inst_W_IO_ConfigMem.Inst_frame1_bit29.Q
+ Inst_W_IO_switch_matrix.E6BEG1 VPWR VGND sg13g2_mux4_1
XFILLER_6_0 VPWR VGND sg13g2_decap_8
XFILLER_1_68 VPWR VGND sg13g2_fill_2
Xinput1 A_O_top net1 VPWR VGND sg13g2_buf_1
XFILLER_10_66 VPWR VGND sg13g2_fill_2
XFILLER_51_95 VPWR VGND sg13g2_decap_8
XFILLER_42_110 VPWR VGND sg13g2_fill_1
X_214_ net12 net80 Inst_W_IO_ConfigMem.Inst_frame1_bit18.Q VPWR VGND sg13g2_dlhq_1
XFILLER_35_52 VPWR VGND sg13g2_decap_8
X_145_ _044_ VPWR net113 VGND Inst_W_IO_ConfigMem.Inst_frame0_bit31.Q _041_ sg13g2_o21ai_1
X_076_ Inst_W_IO_ConfigMem.Inst_frame0_bit20.Q VPWR _026_ VGND _024_ _025_ sg13g2_o21ai_1
XFILLER_56_18 VPWR VGND sg13g2_decap_8
Xoutput190 net213 FrameStrobe_O[5] VPWR VGND sg13g2_buf_1
XFILLER_21_43 VPWR VGND sg13g2_fill_1
XFILLER_7_89 VPWR VGND sg13g2_decap_8
X_128_ net36 net2 Inst_W_IO_ConfigMem.Inst_frame3_bit24.Q Inst_W_IO_switch_matrix.E1BEG2
+ VPWR VGND sg13g2_mux2_1
X_059_ Inst_W_IO_ConfigMem.Inst_frame0_bit26.Q VPWR _010_ VGND net66 net45 sg13g2_o21ai_1
Xinput81 WW4END[8] net104 VPWR VGND sg13g2_buf_1
Xinput70 WW4END[12] net93 VPWR VGND sg13g2_buf_1
XFILLER_5_109 VPWR VGND sg13g2_fill_2
XFILLER_54_84 VPWR VGND sg13g2_decap_8
XFILLER_8_4 VPWR VGND sg13g2_decap_8
Xfanout78 net79 net78 VPWR VGND sg13g2_buf_1
XFILLER_13_11 VPWR VGND sg13g2_decap_8
XFILLER_13_22 VPWR VGND sg13g2_decap_4
Xfanout67 Inst_W_IO_ConfigMem.Inst_frame0_bit18.Q net67 VPWR VGND sg13g2_buf_1
X_161_ net24 net70 Inst_W_IO_ConfigMem.Inst_frame3_bit29.Q VPWR VGND sg13g2_dlhq_1
X_230_ net25 net85 Inst_W_IO_ConfigMem.Inst_frame0_bit2.Q VPWR VGND sg13g2_dlhq_1
XFILLER_24_54 VPWR VGND sg13g2_decap_4
XFILLER_24_32 VPWR VGND sg13g2_fill_2
XFILLER_40_64 VPWR VGND sg13g2_decap_4
X_092_ Inst_W_IO_ConfigMem.Inst_frame1_bit30.Q net103 net96 net64 net1 Inst_W_IO_ConfigMem.Inst_frame1_bit31.Q
+ Inst_W_IO_switch_matrix.E6BEG2 VPWR VGND sg13g2_mux4_1
X_359_ Inst_W_IO_switch_matrix.E1BEG0 net118 VPWR VGND sg13g2_buf_1
XFILLER_1_25 VPWR VGND sg13g2_decap_8
Xinput2 B_O_top net2 VPWR VGND sg13g2_buf_1
XFILLER_51_74 VPWR VGND sg13g2_decap_8
X_213_ net11 net81 Inst_W_IO_ConfigMem.Inst_frame1_bit17.Q VPWR VGND sg13g2_dlhq_1
XFILLER_35_31 VPWR VGND sg13g2_decap_8
X_144_ _044_ _042_ _043_ VPWR VGND sg13g2_nand2b_1
X_075_ Inst_W_IO_ConfigMem.Inst_frame0_bit19.Q VPWR _025_ VGND net45 net67 sg13g2_o21ai_1
XFILLER_19_43 VPWR VGND sg13g2_fill_1
Xoutput180 net203 FrameStrobe_O[14] VPWR VGND sg13g2_buf_1
Xoutput191 net214 FrameStrobe_O[6] VPWR VGND sg13g2_buf_1
XFILLER_46_85 VPWR VGND sg13g2_fill_1
X_127_ net35 Inst_B_IO_1_bidirectional_frame_config_pass.Q Inst_W_IO_ConfigMem.Inst_frame3_bit25.Q
+ Inst_W_IO_switch_matrix.E1BEG3 VPWR VGND sg13g2_mux2_1
XFILLER_23_4 VPWR VGND sg13g2_decap_4
XFILLER_7_46 VPWR VGND sg13g2_decap_8
XFILLER_7_57 VPWR VGND sg13g2_fill_1
X_058_ net46 net66 _009_ VPWR VGND sg13g2_nor2b_1
Xinput82 WW4END[9] net105 VPWR VGND sg13g2_buf_1
XFILLER_16_11 VPWR VGND sg13g2_decap_8
XFILLER_16_77 VPWR VGND sg13g2_fill_1
Xinput60 W6END[3] net60 VPWR VGND sg13g2_buf_1
Xinput71 WW4END[13] net94 VPWR VGND sg13g2_buf_1
XFILLER_57_62 VPWR VGND sg13g2_decap_8
XFILLER_14_0 VPWR VGND sg13g2_decap_8
Xfanout68 net70 net68 VPWR VGND sg13g2_buf_1
Xfanout79 net82 net79 VPWR VGND sg13g2_buf_1
XFILLER_1_113 VPWR VGND sg13g2_fill_2
XFILLER_1_102 VPWR VGND sg13g2_decap_8
XFILLER_54_63 VPWR VGND sg13g2_decap_8
XFILLER_24_11 VPWR VGND sg13g2_decap_4
X_160_ net23 net70 Inst_W_IO_ConfigMem.Inst_frame3_bit28.Q VPWR VGND sg13g2_dlhq_1
XFILLER_49_96 VPWR VGND sg13g2_fill_2
X_091_ Inst_W_IO_ConfigMem.Inst_frame0_bit0.Q net102 net95 net63 net2 Inst_W_IO_ConfigMem.Inst_frame0_bit1.Q
+ Inst_W_IO_switch_matrix.E6BEG3 VPWR VGND sg13g2_mux4_1
X_358_ UserCLK net218 VPWR VGND sg13g2_buf_1
XFILLER_1_59 VPWR VGND sg13g2_fill_1
XFILLER_53_4 VPWR VGND sg13g2_decap_8
X_289_ Inst_W_IO_switch_matrix.E6BEG11 net140 VPWR VGND sg13g2_buf_1
Xinput3 FrameData[0] net3 VPWR VGND sg13g2_buf_1
XFILLER_51_53 VPWR VGND sg13g2_decap_8
X_212_ net10 net81 Inst_W_IO_ConfigMem.Inst_frame1_bit16.Q VPWR VGND sg13g2_dlhq_1
X_143_ Inst_W_IO_ConfigMem.Inst_frame0_bit31.Q VPWR _043_ VGND Inst_W_IO_ConfigMem.Inst_frame0_bit29.Q
+ _040_ sg13g2_o21ai_1
XFILLER_10_68 VPWR VGND sg13g2_fill_1
X_074_ net46 net67 _024_ VPWR VGND sg13g2_nor2b_1
XFILLER_25_8 VPWR VGND sg13g2_fill_2
XFILLER_18_7 VPWR VGND sg13g2_fill_2
Xoutput181 net204 FrameStrobe_O[15] VPWR VGND sg13g2_buf_1
Xoutput192 net215 FrameStrobe_O[7] VPWR VGND sg13g2_buf_1
Xoutput170 net193 FrameData_O[5] VPWR VGND sg13g2_buf_1
XFILLER_21_34 VPWR VGND sg13g2_fill_2
X_126_ Inst_W_IO_ConfigMem.Inst_frame3_bit26.Q net54 net103 net96 net64 Inst_W_IO_ConfigMem.Inst_frame3_bit27.Q
+ Inst_W_IO_switch_matrix.E2BEG0 VPWR VGND sg13g2_mux4_1
XFILLER_7_25 VPWR VGND sg13g2_decap_8
XFILLER_16_4 VPWR VGND sg13g2_decap_8
X_057_ VGND VPWR _006_ _007_ _008_ Inst_W_IO_ConfigMem.Inst_frame0_bit26.Q sg13g2_a21oi_1
Xinput50 W2MID[3] net50 VPWR VGND sg13g2_buf_1
Xinput61 W6END[4] net61 VPWR VGND sg13g2_buf_1
Xinput72 WW4END[14] net95 VPWR VGND sg13g2_buf_1
XFILLER_32_88 VPWR VGND sg13g2_fill_2
XFILLER_16_56 VPWR VGND sg13g2_fill_2
X_109_ Inst_W_IO_ConfigMem.Inst_frame2_bit29.Q net63 net56 net65 net2 Inst_W_IO_ConfigMem.Inst_frame2_bit28.Q
+ Inst_W_IO_switch_matrix.EE4BEG1 VPWR VGND sg13g2_mux4_1
XFILLER_43_32 VPWR VGND sg13g2_fill_2
XFILLER_27_11 VPWR VGND sg13g2_decap_4
Xfanout69 net70 net69 VPWR VGND sg13g2_buf_1
XFILLER_54_42 VPWR VGND sg13g2_decap_8
XFILLER_38_21 VPWR VGND sg13g2_fill_2
XFILLER_40_11 VPWR VGND sg13g2_decap_4
X_090_ Inst_W_IO_ConfigMem.Inst_frame0_bit2.Q net37 net99 net60 net1 Inst_W_IO_ConfigMem.Inst_frame0_bit3.Q
+ Inst_W_IO_switch_matrix.E6BEG4 VPWR VGND sg13g2_mux4_1
XFILLER_24_34 VPWR VGND sg13g2_fill_1
X_357_ FrameStrobe[19] net208 VPWR VGND sg13g2_buf_1
XFILLER_51_102 VPWR VGND sg13g2_decap_4
XFILLER_36_110 VPWR VGND sg13g2_fill_1
Xinput4 FrameData[10] net4 VPWR VGND sg13g2_buf_1
X_288_ Inst_W_IO_switch_matrix.E6BEG10 net139 VPWR VGND sg13g2_buf_1
XFILLER_51_32 VPWR VGND sg13g2_decap_8
XFILLER_35_11 VPWR VGND sg13g2_fill_2
X_211_ net9 net81 Inst_W_IO_ConfigMem.Inst_frame1_bit15.Q VPWR VGND sg13g2_dlhq_1
X_142_ Inst_W_IO_ConfigMem.Inst_frame0_bit29.Q VPWR _042_ VGND net45 Inst_W_IO_ConfigMem.Inst_frame0_bit30.Q
+ sg13g2_o21ai_1
XFILLER_10_14 VPWR VGND sg13g2_fill_2
X_073_ VGND VPWR _021_ _022_ _023_ Inst_W_IO_ConfigMem.Inst_frame0_bit19.Q sg13g2_a21oi_1
XFILLER_2_92 VPWR VGND sg13g2_decap_8
Xoutput182 net205 FrameStrobe_O[16] VPWR VGND sg13g2_buf_1
Xoutput193 net216 FrameStrobe_O[8] VPWR VGND sg13g2_buf_1
Xoutput160 net183 FrameData_O[25] VPWR VGND sg13g2_buf_1
Xoutput171 net194 FrameData_O[6] VPWR VGND sg13g2_buf_1
X_125_ Inst_W_IO_ConfigMem.Inst_frame3_bit28.Q net53 net102 net95 net63 Inst_W_IO_ConfigMem.Inst_frame3_bit29.Q