* NGSPICE file created from N_term_DSP.ext - technology: sky130A

* Black-box entry subcircuit for sky130_fd_sc_hd__tapvpwrvgnd_1 abstract view
.subckt sky130_fd_sc_hd__tapvpwrvgnd_1 VGND VPWR
.ends

* Black-box entry subcircuit for sky130_ef_sc_hd__decap_12 abstract view
.subckt sky130_ef_sc_hd__decap_12 VPWR VGND VPB VNB
.ends

* Black-box entry subcircuit for sky130_fd_sc_hd__decap_3 abstract view
.subckt sky130_fd_sc_hd__decap_3 VGND VNB VPB VPWR
.ends

* Black-box entry subcircuit for sky130_fd_sc_hd__decap_4 abstract view
.subckt sky130_fd_sc_hd__decap_4 VGND VNB VPB VPWR
.ends

* Black-box entry subcircuit for sky130_fd_sc_hd__decap_8 abstract view
.subckt sky130_fd_sc_hd__decap_8 VGND VNB VPB VPWR
.ends

* Black-box entry subcircuit for sky130_fd_sc_hd__buf_1 abstract view
.subckt sky130_fd_sc_hd__buf_1 A VGND VNB VPB VPWR X
.ends

* Black-box entry subcircuit for sky130_fd_sc_hd__fill_1 abstract view
.subckt sky130_fd_sc_hd__fill_1 VGND VNB VPB VPWR
.ends

* Black-box entry subcircuit for sky130_fd_sc_hd__clkbuf_1 abstract view
.subckt sky130_fd_sc_hd__clkbuf_1 A VGND VNB VPB VPWR X
.ends

* Black-box entry subcircuit for sky130_fd_sc_hd__decap_6 abstract view
.subckt sky130_fd_sc_hd__decap_6 VGND VNB VPB VPWR
.ends

* Black-box entry subcircuit for sky130_fd_sc_hd__diode_2 abstract view
.subckt sky130_fd_sc_hd__diode_2 DIODE VGND VNB VPB VPWR
.ends

* Black-box entry subcircuit for sky130_fd_sc_hd__buf_2 abstract view
.subckt sky130_fd_sc_hd__buf_2 A VGND VNB VPB VPWR X
.ends

* Black-box entry subcircuit for sky130_fd_sc_hd__fill_2 abstract view
.subckt sky130_fd_sc_hd__fill_2 VGND VNB VPB VPWR
.ends

.subckt N_term_DSP FrameData[0] FrameData[10] FrameData[11] FrameData[12] FrameData[13]
+ FrameData[14] FrameData[15] FrameData[16] FrameData[17] FrameData[18] FrameData[19]
+ FrameData[1] FrameData[20] FrameData[21] FrameData[22] FrameData[23] FrameData[24]
+ FrameData[25] FrameData[26] FrameData[27] FrameData[28] FrameData[29] FrameData[2]
+ FrameData[30] FrameData[31] FrameData[3] FrameData[4] FrameData[5] FrameData[6]
+ FrameData[7] FrameData[8] FrameData[9] FrameData_O[0] FrameData_O[10] FrameData_O[11]
+ FrameData_O[12] FrameData_O[13] FrameData_O[14] FrameData_O[15] FrameData_O[16]
+ FrameData_O[17] FrameData_O[18] FrameData_O[19] FrameData_O[1] FrameData_O[20] FrameData_O[21]
+ FrameData_O[22] FrameData_O[23] FrameData_O[24] FrameData_O[25] FrameData_O[26]
+ FrameData_O[27] FrameData_O[28] FrameData_O[29] FrameData_O[2] FrameData_O[30] FrameData_O[31]
+ FrameData_O[3] FrameData_O[4] FrameData_O[5] FrameData_O[6] FrameData_O[7] FrameData_O[8]
+ FrameData_O[9] FrameStrobe[0] FrameStrobe[10] FrameStrobe[11] FrameStrobe[12] FrameStrobe[13]
+ FrameStrobe[14] FrameStrobe[15] FrameStrobe[16] FrameStrobe[17] FrameStrobe[18]
+ FrameStrobe[19] FrameStrobe[1] FrameStrobe[2] FrameStrobe[3] FrameStrobe[4] FrameStrobe[5]
+ FrameStrobe[6] FrameStrobe[7] FrameStrobe[8] FrameStrobe[9] FrameStrobe_O[0] FrameStrobe_O[10]
+ FrameStrobe_O[11] FrameStrobe_O[12] FrameStrobe_O[13] FrameStrobe_O[14] FrameStrobe_O[15]
+ FrameStrobe_O[16] FrameStrobe_O[17] FrameStrobe_O[18] FrameStrobe_O[19] FrameStrobe_O[1]
+ FrameStrobe_O[2] FrameStrobe_O[3] FrameStrobe_O[4] FrameStrobe_O[5] FrameStrobe_O[6]
+ FrameStrobe_O[7] FrameStrobe_O[8] FrameStrobe_O[9] N1END[0] N1END[1] N1END[2] N1END[3]
+ N2END[0] N2END[1] N2END[2] N2END[3] N2END[4] N2END[5] N2END[6] N2END[7] N2MID[0]
+ N2MID[1] N2MID[2] N2MID[3] N2MID[4] N2MID[5] N2MID[6] N2MID[7] N4END[0] N4END[10]
+ N4END[11] N4END[12] N4END[13] N4END[14] N4END[15] N4END[1] N4END[2] N4END[3] N4END[4]
+ N4END[5] N4END[6] N4END[7] N4END[8] N4END[9] NN4END[0] NN4END[10] NN4END[11] NN4END[12]
+ NN4END[13] NN4END[14] NN4END[15] NN4END[1] NN4END[2] NN4END[3] NN4END[4] NN4END[5]
+ NN4END[6] NN4END[7] NN4END[8] NN4END[9] S1BEG[0] S1BEG[1] S1BEG[2] S1BEG[3] S2BEG[0]
+ S2BEG[1] S2BEG[2] S2BEG[3] S2BEG[4] S2BEG[5] S2BEG[6] S2BEG[7] S2BEGb[0] S2BEGb[1]
+ S2BEGb[2] S2BEGb[3] S2BEGb[4] S2BEGb[5] S2BEGb[6] S2BEGb[7] S4BEG[0] S4BEG[10] S4BEG[11]
+ S4BEG[12] S4BEG[13] S4BEG[14] S4BEG[15] S4BEG[1] S4BEG[2] S4BEG[3] S4BEG[4] S4BEG[5]
+ S4BEG[6] S4BEG[7] S4BEG[8] S4BEG[9] SS4BEG[0] SS4BEG[10] SS4BEG[11] SS4BEG[12] SS4BEG[13]
+ SS4BEG[14] SS4BEG[15] SS4BEG[1] SS4BEG[2] SS4BEG[3] SS4BEG[4] SS4BEG[5] SS4BEG[6]
+ SS4BEG[7] SS4BEG[8] SS4BEG[9] UserCLK UserCLKo VGND VPWR
XTAP_TAPCELL_ROW_9_104 VGND VPWR sky130_fd_sc_hd__tapvpwrvgnd_1
XFILLER_9_137 VPWR VGND VPWR VGND sky130_ef_sc_hd__decap_12
XFILLER_5_398 VPWR VGND VPWR VGND sky130_ef_sc_hd__decap_12
XFILLER_5_354 VPWR VGND VPWR VGND sky130_ef_sc_hd__decap_12
XTAP_TAPCELL_ROW_8_99 VGND VPWR sky130_fd_sc_hd__tapvpwrvgnd_1
XPHY_EDGE_ROW_0_Left_12 VGND VGND VPWR VPWR sky130_fd_sc_hd__decap_3
XTAP_TAPCELL_ROW_11_131 VGND VPWR sky130_fd_sc_hd__tapvpwrvgnd_1
XTAP_TAPCELL_ROW_11_120 VGND VPWR sky130_fd_sc_hd__tapvpwrvgnd_1
XFILLER_7_449 VGND VGND VPWR VPWR sky130_fd_sc_hd__decap_4
XFILLER_7_438 VGND VGND VPWR VPWR sky130_fd_sc_hd__decap_8
XFILLER_7_416 VPWR VGND VPWR VGND sky130_ef_sc_hd__decap_12
X_062_ N2MID[1] VGND VGND VPWR VPWR net63 sky130_fd_sc_hd__buf_1
XFILLER_9_55 VGND VGND VPWR VPWR sky130_fd_sc_hd__fill_1
XFILLER_0_57 VPWR VGND VPWR VGND sky130_ef_sc_hd__decap_12
XFILLER_2_121 VPWR VGND VPWR VGND sky130_ef_sc_hd__decap_12
XFILLER_4_419 VGND VGND VPWR VPWR sky130_fd_sc_hd__fill_1
XFILLER_11_297 VGND VGND VPWR VPWR sky130_fd_sc_hd__decap_4
XFILLER_11_253 VGND VGND VPWR VPWR sky130_fd_sc_hd__decap_3
X_045_ FrameStrobe[13] VGND VGND VPWR VPWR net37 sky130_fd_sc_hd__clkbuf_1
XFILLER_7_268 VPWR VGND VPWR VGND sky130_ef_sc_hd__decap_12
XTAP_TAPCELL_ROW_5_78 VGND VPWR sky130_fd_sc_hd__tapvpwrvgnd_1
XFILLER_3_441 VGND VGND VPWR VPWR sky130_fd_sc_hd__decap_6
XFILLER_0_433 VGND VGND VPWR VPWR sky130_fd_sc_hd__decap_8
X_028_ FrameData[28] VGND VGND VPWR VPWR net21 sky130_fd_sc_hd__buf_1
XANTENNA_5 FrameData[15] VGND VGND VPWR VPWR sky130_fd_sc_hd__diode_2
Xoutput42 net42 VGND VGND VPWR VPWR FrameStrobe_O[18] sky130_fd_sc_hd__buf_2
Xoutput20 net20 VGND VGND VPWR VPWR FrameData_O[27] sky130_fd_sc_hd__buf_2
XFILLER_8_341 VPWR VGND VPWR VGND sky130_ef_sc_hd__decap_12
Xoutput7 net7 VGND VGND VPWR VPWR FrameData_O[15] sky130_fd_sc_hd__buf_2
Xoutput64 net64 VGND VGND VPWR VPWR S2BEG[7] sky130_fd_sc_hd__buf_2
Xoutput53 net53 VGND VGND VPWR VPWR S1BEG[0] sky130_fd_sc_hd__buf_2
Xoutput86 net86 VGND VGND VPWR VPWR S4BEG[7] sky130_fd_sc_hd__buf_2
Xoutput75 net75 VGND VGND VPWR VPWR S4BEG[11] sky130_fd_sc_hd__buf_2
Xoutput97 net97 VGND VGND VPWR VPWR SS4BEG[2] sky130_fd_sc_hd__buf_2
Xoutput31 net31 VGND VGND VPWR VPWR FrameData_O[8] sky130_fd_sc_hd__buf_2
XTAP_TAPCELL_ROW_9_105 VGND VPWR sky130_fd_sc_hd__tapvpwrvgnd_1
XFILLER_9_149 VPWR VGND VPWR VGND sky130_ef_sc_hd__decap_12
XFILLER_9_105 VGND VGND VPWR VPWR sky130_fd_sc_hd__decap_6
XFILLER_5_366 VPWR VGND VPWR VGND sky130_ef_sc_hd__decap_12
XFILLER_3_13 VPWR VGND VPWR VGND sky130_ef_sc_hd__decap_12
XFILLER_3_35 VPWR VGND VPWR VGND sky130_ef_sc_hd__decap_12
XFILLER_3_57 VPWR VGND VPWR VGND sky130_ef_sc_hd__decap_12
XFILLER_2_336 VGND VGND VPWR VPWR sky130_fd_sc_hd__fill_1
XTAP_TAPCELL_ROW_11_132 VGND VPWR sky130_fd_sc_hd__tapvpwrvgnd_1
XTAP_TAPCELL_ROW_11_121 VGND VPWR sky130_fd_sc_hd__tapvpwrvgnd_1
XFILLER_1_391 VGND VGND VPWR VPWR sky130_fd_sc_hd__fill_1
XFILLER_7_428 VGND VGND VPWR VPWR sky130_fd_sc_hd__decap_6
X_061_ N2MID[2] VGND VGND VPWR VPWR net62 sky130_fd_sc_hd__buf_1
XFILLER_0_69 VPWR VGND VPWR VGND sky130_ef_sc_hd__decap_12
XFILLER_2_133 VGND VGND VPWR VPWR sky130_fd_sc_hd__decap_6
X_044_ FrameStrobe[12] VGND VGND VPWR VPWR net36 sky130_fd_sc_hd__clkbuf_1
XFILLER_7_225 VPWR VGND VPWR VGND sky130_ef_sc_hd__decap_12
XTAP_TAPCELL_ROW_5_79 VGND VPWR sky130_fd_sc_hd__tapvpwrvgnd_1
XFILLER_3_453 VGND VGND VPWR VPWR sky130_fd_sc_hd__fill_1
X_027_ FrameData[27] VGND VGND VPWR VPWR net20 sky130_fd_sc_hd__buf_1
XANTENNA_6 FrameData[16] VGND VGND VPWR VPWR sky130_fd_sc_hd__diode_2
XPHY_EDGE_ROW_6_Right_6 VGND VGND VPWR VPWR sky130_fd_sc_hd__decap_3
Xoutput43 net43 VGND VGND VPWR VPWR FrameStrobe_O[19] sky130_fd_sc_hd__buf_2
Xoutput21 net21 VGND VGND VPWR VPWR FrameData_O[28] sky130_fd_sc_hd__buf_2
Xoutput8 net8 VGND VGND VPWR VPWR FrameData_O[16] sky130_fd_sc_hd__buf_2
Xoutput10 net10 VGND VGND VPWR VPWR FrameData_O[18] sky130_fd_sc_hd__buf_2
Xoutput65 net65 VGND VGND VPWR VPWR S2BEGb[0] sky130_fd_sc_hd__buf_2
Xoutput54 net54 VGND VGND VPWR VPWR S1BEG[1] sky130_fd_sc_hd__buf_2
Xoutput87 net87 VGND VGND VPWR VPWR S4BEG[8] sky130_fd_sc_hd__buf_2
Xoutput76 net76 VGND VGND VPWR VPWR S4BEG[12] sky130_fd_sc_hd__buf_2
Xoutput98 net98 VGND VGND VPWR VPWR SS4BEG[3] sky130_fd_sc_hd__buf_2
Xoutput32 net32 VGND VGND VPWR VPWR FrameData_O[9] sky130_fd_sc_hd__buf_2
XFILLER_8_353 VGND VGND VPWR VPWR sky130_fd_sc_hd__decap_8
XTAP_TAPCELL_ROW_9_106 VGND VPWR sky130_fd_sc_hd__tapvpwrvgnd_1
XFILLER_5_378 VGND VGND VPWR VPWR sky130_fd_sc_hd__decap_8
XFILLER_5_334 VGND VGND VPWR VPWR sky130_fd_sc_hd__fill_2
XFILLER_3_25 VGND VGND VPWR VPWR sky130_fd_sc_hd__decap_6
XFILLER_3_47 VGND VGND VPWR VPWR sky130_fd_sc_hd__decap_8
XFILLER_3_69 VPWR VGND VPWR VGND sky130_ef_sc_hd__decap_12
XFILLER_6_109 VPWR VGND VPWR VGND sky130_ef_sc_hd__decap_12
XTAP_TAPCELL_ROW_11_133 VGND VPWR sky130_fd_sc_hd__tapvpwrvgnd_1
XTAP_TAPCELL_ROW_11_122 VGND VPWR sky130_fd_sc_hd__tapvpwrvgnd_1
XFILLER_1_381 VGND VGND VPWR VPWR sky130_fd_sc_hd__decap_6
XFILLER_11_425 VGND VGND VPWR VPWR sky130_fd_sc_hd__decap_8
XFILLER_7_407 VGND VGND VPWR VPWR sky130_fd_sc_hd__decap_6
X_060_ N2MID[3] VGND VGND VPWR VPWR net61 sky130_fd_sc_hd__buf_1
XFILLER_0_15 VPWR VGND VPWR VGND sky130_ef_sc_hd__decap_12
XFILLER_3_3 VGND VGND VPWR VPWR sky130_fd_sc_hd__decap_6
XFILLER_9_57 VPWR VGND VPWR VGND sky130_ef_sc_hd__decap_12
XFILLER_11_222 VGND VGND VPWR VPWR sky130_fd_sc_hd__fill_2
X_043_ FrameStrobe[11] VGND VGND VPWR VPWR net35 sky130_fd_sc_hd__clkbuf_1
XFILLER_7_237 VPWR VGND VPWR VGND sky130_ef_sc_hd__decap_12
X_026_ FrameData[26] VGND VGND VPWR VPWR net19 sky130_fd_sc_hd__buf_1
XANTENNA_7 FrameData[17] VGND VGND VPWR VPWR sky130_fd_sc_hd__diode_2
Xoutput44 net44 VGND VGND VPWR VPWR FrameStrobe_O[1] sky130_fd_sc_hd__buf_2
Xoutput33 net33 VGND VGND VPWR VPWR FrameStrobe_O[0] sky130_fd_sc_hd__buf_2
Xoutput22 net22 VGND VGND VPWR VPWR FrameData_O[29] sky130_fd_sc_hd__buf_2
Xoutput11 net11 VGND VGND VPWR VPWR FrameData_O[19] sky130_fd_sc_hd__buf_2
Xoutput9 net9 VGND VGND VPWR VPWR FrameData_O[17] sky130_fd_sc_hd__buf_2
Xoutput66 net66 VGND VGND VPWR VPWR S2BEGb[1] sky130_fd_sc_hd__buf_2
Xoutput55 net55 VGND VGND VPWR VPWR S1BEG[2] sky130_fd_sc_hd__buf_2
Xoutput88 net88 VGND VGND VPWR VPWR S4BEG[9] sky130_fd_sc_hd__buf_2
Xoutput77 net77 VGND VGND VPWR VPWR S4BEG[13] sky130_fd_sc_hd__buf_2
Xoutput99 net99 VGND VGND VPWR VPWR SS4BEG[4] sky130_fd_sc_hd__buf_2
XTAP_TAPCELL_ROW_2_48 VGND VPWR sky130_fd_sc_hd__tapvpwrvgnd_1
XFILLER_8_365 VGND VGND VPWR VPWR sky130_fd_sc_hd__fill_2
X_009_ FrameData[9] VGND VGND VPWR VPWR net32 sky130_fd_sc_hd__buf_1
XTAP_TAPCELL_ROW_9_107 VGND VPWR sky130_fd_sc_hd__tapvpwrvgnd_1
XFILLER_5_302 VPWR VGND VPWR VGND sky130_ef_sc_hd__decap_12
XFILLER_10_139 VGND VGND VPWR VPWR sky130_fd_sc_hd__fill_1
XTAP_TAPCELL_ROW_11_134 VGND VPWR sky130_fd_sc_hd__tapvpwrvgnd_1
XTAP_TAPCELL_ROW_11_123 VGND VPWR sky130_fd_sc_hd__tapvpwrvgnd_1
XFILLER_1_371 VGND VGND VPWR VPWR sky130_fd_sc_hd__decap_4
XFILLER_1_393 VGND VGND VPWR VPWR sky130_fd_sc_hd__decap_8
XFILLER_0_27 VGND VGND VPWR VPWR sky130_fd_sc_hd__fill_1
XPHY_EDGE_ROW_4_Left_16 VGND VGND VPWR VPWR sky130_fd_sc_hd__decap_3
XFILLER_9_69 VPWR VGND VPWR VGND sky130_ef_sc_hd__decap_12
X_042_ FrameStrobe[10] VGND VGND VPWR VPWR net34 sky130_fd_sc_hd__clkbuf_1
XFILLER_7_249 VPWR VGND VPWR VGND sky130_ef_sc_hd__decap_12
X_025_ FrameData[25] VGND VGND VPWR VPWR net18 sky130_fd_sc_hd__buf_1
XFILLER_6_59 VGND VGND VPWR VPWR sky130_fd_sc_hd__fill_1
XFILLER_6_15 VPWR VGND VPWR VGND sky130_ef_sc_hd__decap_12
XANTENNA_8 FrameData[18] VGND VGND VPWR VPWR sky130_fd_sc_hd__diode_2
XTAP_TAPCELL_ROW_6_80 VGND VPWR sky130_fd_sc_hd__tapvpwrvgnd_1
Xoutput34 net34 VGND VGND VPWR VPWR FrameStrobe_O[10] sky130_fd_sc_hd__buf_2
Xoutput45 net45 VGND VGND VPWR VPWR FrameStrobe_O[2] sky130_fd_sc_hd__buf_2
Xoutput67 net67 VGND VGND VPWR VPWR S2BEGb[2] sky130_fd_sc_hd__buf_2
Xoutput56 net56 VGND VGND VPWR VPWR S1BEG[3] sky130_fd_sc_hd__buf_2
XFILLER_0_277 VGND VGND VPWR VPWR sky130_fd_sc_hd__decap_3
Xoutput78 net78 VGND VGND VPWR VPWR S4BEG[14] sky130_fd_sc_hd__buf_2
Xoutput89 net89 VGND VGND VPWR VPWR SS4BEG[0] sky130_fd_sc_hd__buf_2
Xoutput12 net12 VGND VGND VPWR VPWR FrameData_O[1] sky130_fd_sc_hd__buf_2
Xoutput23 net23 VGND VGND VPWR VPWR FrameData_O[2] sky130_fd_sc_hd__buf_2
XTAP_TAPCELL_ROW_2_49 VGND VPWR sky130_fd_sc_hd__tapvpwrvgnd_1
X_008_ FrameData[8] VGND VGND VPWR VPWR net31 sky130_fd_sc_hd__buf_1
XTAP_TAPCELL_ROW_9_108 VGND VPWR sky130_fd_sc_hd__tapvpwrvgnd_1
XFILLER_7_91 VPWR VGND VPWR VGND sky130_ef_sc_hd__decap_12
XFILLER_5_314 VPWR VGND VPWR VGND sky130_ef_sc_hd__decap_12
XFILLER_8_141 VPWR VGND VPWR VGND sky130_ef_sc_hd__decap_12
XTAP_TAPCELL_ROW_11_135 VGND VPWR sky130_fd_sc_hd__tapvpwrvgnd_1
XTAP_TAPCELL_ROW_11_124 VGND VPWR sky130_fd_sc_hd__tapvpwrvgnd_1
XFILLER_5_188 VPWR VGND VPWR VGND sky130_ef_sc_hd__decap_12
XFILLER_5_177 VGND VGND VPWR VPWR sky130_fd_sc_hd__fill_1
XFILLER_11_449 VGND VGND VPWR VPWR sky130_fd_sc_hd__fill_1
XFILLER_4_70 VPWR VGND VPWR VGND sky130_ef_sc_hd__decap_12
XFILLER_9_15 VPWR VGND VPWR VGND sky130_ef_sc_hd__decap_12
XFILLER_6_453 VGND VGND VPWR VPWR sky130_fd_sc_hd__fill_1
X_041_ FrameStrobe[9] VGND VGND VPWR VPWR net52 sky130_fd_sc_hd__clkbuf_1
XFILLER_6_294 VGND VGND VPWR VPWR sky130_fd_sc_hd__fill_2
XFILLER_4_209 VPWR VGND VPWR VGND sky130_ef_sc_hd__decap_12
X_024_ FrameData[24] VGND VGND VPWR VPWR net17 sky130_fd_sc_hd__buf_1
XANTENNA_9 FrameData[19] VGND VGND VPWR VPWR sky130_fd_sc_hd__diode_2
XTAP_TAPCELL_ROW_6_81 VGND VPWR sky130_fd_sc_hd__tapvpwrvgnd_1
XFILLER_6_27 VGND VGND VPWR VPWR sky130_fd_sc_hd__fill_1
Xoutput35 net35 VGND VGND VPWR VPWR FrameStrobe_O[11] sky130_fd_sc_hd__buf_2
Xoutput46 net46 VGND VGND VPWR VPWR FrameStrobe_O[3] sky130_fd_sc_hd__buf_2
Xoutput24 net24 VGND VGND VPWR VPWR FrameData_O[30] sky130_fd_sc_hd__buf_2
Xoutput13 net13 VGND VGND VPWR VPWR FrameData_O[20] sky130_fd_sc_hd__buf_2
Xoutput57 net57 VGND VGND VPWR VPWR S2BEG[0] sky130_fd_sc_hd__buf_2
X_007_ FrameData[7] VGND VGND VPWR VPWR net30 sky130_fd_sc_hd__buf_1
Xoutput68 net68 VGND VGND VPWR VPWR S2BEGb[3] sky130_fd_sc_hd__buf_2
Xoutput79 net79 VGND VGND VPWR VPWR S4BEG[15] sky130_fd_sc_hd__buf_2
XTAP_TAPCELL_ROW_9_109 VGND VPWR sky130_fd_sc_hd__tapvpwrvgnd_1
XFILLER_7_81 VGND VGND VPWR VPWR sky130_fd_sc_hd__decap_4
XFILLER_5_337 VPWR VGND VPWR VGND sky130_ef_sc_hd__decap_12
XFILLER_5_326 VGND VGND VPWR VPWR sky130_fd_sc_hd__decap_8
XFILLER_8_197 VPWR VGND VPWR VGND sky130_ef_sc_hd__decap_12
XFILLER_8_153 VGND VGND VPWR VPWR sky130_fd_sc_hd__decap_6
XFILLER_8_131 VGND VGND VPWR VPWR sky130_fd_sc_hd__decap_8
XTAP_TAPCELL_ROW_3_60 VGND VPWR sky130_fd_sc_hd__tapvpwrvgnd_1
XFILLER_2_318 VPWR VGND VPWR VGND sky130_ef_sc_hd__decap_12
XTAP_TAPCELL_ROW_11_125 VGND VPWR sky130_fd_sc_hd__tapvpwrvgnd_1
XFILLER_5_167 VGND VGND VPWR VPWR sky130_fd_sc_hd__fill_1
XFILLER_4_82 VGND VGND VPWR VPWR sky130_fd_sc_hd__fill_2
XFILLER_9_27 VPWR VGND VPWR VGND sky130_ef_sc_hd__decap_12
XFILLER_6_421 VPWR VGND VPWR VGND sky130_ef_sc_hd__decap_12
XFILLER_0_29 VPWR VGND VPWR VGND sky130_ef_sc_hd__decap_12
XFILLER_2_159 VPWR VGND VPWR VGND sky130_ef_sc_hd__decap_12
XFILLER_9_281 VPWR VGND VPWR VGND sky130_ef_sc_hd__decap_12
XFILLER_1_181 VPWR VGND VPWR VGND sky130_ef_sc_hd__decap_12
XFILLER_11_225 VGND VGND VPWR VPWR sky130_fd_sc_hd__decap_8
XFILLER_11_214 VGND VGND VPWR VPWR sky130_fd_sc_hd__decap_8
X_040_ FrameStrobe[8] VGND VGND VPWR VPWR net51 sky130_fd_sc_hd__clkbuf_1
XFILLER_1_3 VGND VGND VPWR VPWR sky130_fd_sc_hd__decap_4
XFILLER_0_405 VPWR VGND VPWR VGND sky130_ef_sc_hd__decap_12
XFILLER_0_449 VGND VGND VPWR VPWR sky130_fd_sc_hd__fill_1
X_023_ FrameData[23] VGND VGND VPWR VPWR net16 sky130_fd_sc_hd__buf_1
XTAP_TAPCELL_ROW_6_82 VGND VPWR sky130_fd_sc_hd__tapvpwrvgnd_1
XFILLER_3_254 VPWR VGND VPWR VGND sky130_ef_sc_hd__decap_12
Xoutput36 net36 VGND VGND VPWR VPWR FrameStrobe_O[12] sky130_fd_sc_hd__buf_2
Xoutput47 net47 VGND VGND VPWR VPWR FrameStrobe_O[4] sky130_fd_sc_hd__buf_2
Xoutput25 net25 VGND VGND VPWR VPWR FrameData_O[31] sky130_fd_sc_hd__buf_2
X_006_ FrameData[6] VGND VGND VPWR VPWR net29 sky130_fd_sc_hd__buf_1
Xoutput14 net14 VGND VGND VPWR VPWR FrameData_O[21] sky130_fd_sc_hd__buf_2
Xoutput69 net69 VGND VGND VPWR VPWR S2BEGb[4] sky130_fd_sc_hd__buf_2
Xoutput58 net58 VGND VGND VPWR VPWR S2BEG[1] sky130_fd_sc_hd__buf_2
XTAP_TAPCELL_ROW_3_61 VGND VPWR sky130_fd_sc_hd__tapvpwrvgnd_1
XFILLER_10_109 VPWR VGND VPWR VGND sky130_ef_sc_hd__decap_12
XTAP_TAPCELL_ROW_11_126 VGND VPWR sky130_fd_sc_hd__tapvpwrvgnd_1
XFILLER_5_113 VPWR VGND VPWR VGND sky130_ef_sc_hd__decap_12
XFILLER_11_418 VGND VGND VPWR VPWR sky130_fd_sc_hd__fill_2
XFILLER_9_441 VGND VGND VPWR VPWR sky130_fd_sc_hd__decap_6
XFILLER_9_39 VPWR VGND VPWR VGND sky130_ef_sc_hd__decap_12
XFILLER_6_433 VPWR VGND VPWR VGND sky130_ef_sc_hd__decap_12
XFILLER_6_411 VGND VGND VPWR VPWR sky130_fd_sc_hd__decap_8
XFILLER_9_293 VPWR VGND VPWR VGND sky130_ef_sc_hd__decap_12
XFILLER_1_193 VPWR VGND VPWR VGND sky130_ef_sc_hd__decap_12
XFILLER_11_237 VPWR VGND VPWR VGND sky130_ef_sc_hd__decap_12
XFILLER_3_447 VGND VGND VPWR VPWR sky130_fd_sc_hd__fill_1
XFILLER_10_270 VGND VGND VPWR VPWR sky130_fd_sc_hd__decap_4
XFILLER_6_274 VPWR VGND VPWR VGND sky130_ef_sc_hd__decap_12
X_099_ NN4END[4] VGND VGND VPWR VPWR net91 sky130_fd_sc_hd__clkbuf_1
XFILLER_1_73 VPWR VGND VPWR VGND sky130_ef_sc_hd__decap_12
XFILLER_0_417 VGND VGND VPWR VPWR sky130_fd_sc_hd__decap_3
XFILLER_10_60 VPWR VGND VPWR VGND sky130_ef_sc_hd__decap_12
XFILLER_6_29 VPWR VGND VPWR VGND sky130_ef_sc_hd__decap_12
X_022_ FrameData[22] VGND VGND VPWR VPWR net15 sky130_fd_sc_hd__buf_1
XFILLER_3_222 VGND VGND VPWR VPWR sky130_fd_sc_hd__fill_2
XFILLER_3_266 VPWR VGND VPWR VGND sky130_ef_sc_hd__decap_12
XTAP_TAPCELL_ROW_6_83 VGND VPWR sky130_fd_sc_hd__tapvpwrvgnd_1
Xoutput37 net37 VGND VGND VPWR VPWR FrameStrobe_O[13] sky130_fd_sc_hd__buf_2
Xoutput48 net48 VGND VGND VPWR VPWR FrameStrobe_O[5] sky130_fd_sc_hd__buf_2
Xoutput15 net15 VGND VGND VPWR VPWR FrameData_O[22] sky130_fd_sc_hd__buf_2
Xoutput59 net59 VGND VGND VPWR VPWR S2BEG[2] sky130_fd_sc_hd__buf_2
XPHY_EDGE_ROW_1_Right_1 VGND VGND VPWR VPWR sky130_fd_sc_hd__decap_3
Xoutput26 net26 VGND VGND VPWR VPWR FrameData_O[3] sky130_fd_sc_hd__buf_2
XFILLER_11_6 VPWR VGND VPWR VGND sky130_ef_sc_hd__decap_12
X_005_ FrameData[5] VGND VGND VPWR VPWR net28 sky130_fd_sc_hd__buf_1
XTAP_TAPCELL_ROW_8_100 VGND VPWR sky130_fd_sc_hd__tapvpwrvgnd_1
XFILLER_7_391 VGND VGND VPWR VPWR sky130_fd_sc_hd__fill_1
XFILLER_8_166 VPWR VGND VPWR VGND sky130_ef_sc_hd__decap_12
XTAP_TAPCELL_ROW_3_62 VGND VPWR sky130_fd_sc_hd__tapvpwrvgnd_1
XFILLER_2_309 VGND VGND VPWR VPWR sky130_fd_sc_hd__decap_6
XTAP_TAPCELL_ROW_11_127 VGND VPWR sky130_fd_sc_hd__tapvpwrvgnd_1
XFILLER_5_169 VGND VGND VPWR VPWR sky130_fd_sc_hd__decap_8
XFILLER_5_125 VPWR VGND VPWR VGND sky130_ef_sc_hd__decap_12
XFILLER_1_375 VGND VGND VPWR VPWR sky130_fd_sc_hd__fill_1
XFILLER_9_453 VGND VGND VPWR VPWR sky130_fd_sc_hd__fill_1
XFILLER_4_191 VGND VGND VPWR VPWR sky130_fd_sc_hd__decap_4
XFILLER_2_139 VGND VGND VPWR VPWR sky130_fd_sc_hd__fill_1
XFILLER_10_441 VGND VGND VPWR VPWR sky130_fd_sc_hd__fill_1
XFILLER_6_445 VGND VGND VPWR VPWR sky130_fd_sc_hd__decap_8
XTAP_TAPCELL_ROW_0_30 VGND VPWR sky130_fd_sc_hd__tapvpwrvgnd_1
XFILLER_11_249 VGND VGND VPWR VPWR sky130_fd_sc_hd__decap_3
XFILLER_6_286 VGND VGND VPWR VPWR sky130_fd_sc_hd__decap_8
XFILLER_6_253 VPWR VGND VPWR VGND sky130_ef_sc_hd__decap_12
X_098_ NN4END[5] VGND VGND VPWR VPWR net90 sky130_fd_sc_hd__clkbuf_1
XFILLER_1_85 VPWR VGND VPWR VGND sky130_ef_sc_hd__decap_12
XFILLER_10_72 VPWR VGND VPWR VGND sky130_ef_sc_hd__decap_12
X_021_ FrameData[21] VGND VGND VPWR VPWR net14 sky130_fd_sc_hd__buf_1
XFILLER_3_278 VGND VGND VPWR VPWR sky130_fd_sc_hd__fill_2
XPHY_EDGE_ROW_11_Left_23 VGND VGND VPWR VPWR sky130_fd_sc_hd__decap_3
XTAP_TAPCELL_ROW_6_84 VGND VPWR sky130_fd_sc_hd__tapvpwrvgnd_1
Xoutput38 net38 VGND VGND VPWR VPWR FrameStrobe_O[14] sky130_fd_sc_hd__buf_2
Xoutput49 net49 VGND VGND VPWR VPWR FrameStrobe_O[6] sky130_fd_sc_hd__buf_2
Xoutput16 net16 VGND VGND VPWR VPWR FrameData_O[23] sky130_fd_sc_hd__buf_2
Xoutput27 net27 VGND VGND VPWR VPWR FrameData_O[4] sky130_fd_sc_hd__buf_2
X_004_ FrameData[4] VGND VGND VPWR VPWR net27 sky130_fd_sc_hd__buf_1
XFILLER_7_51 VGND VGND VPWR VPWR sky130_fd_sc_hd__fill_1
XTAP_TAPCELL_ROW_8_101 VGND VPWR sky130_fd_sc_hd__tapvpwrvgnd_1
XFILLER_8_178 VPWR VGND VPWR VGND sky130_ef_sc_hd__decap_12
XTAP_TAPCELL_ROW_3_63 VGND VPWR sky130_fd_sc_hd__tapvpwrvgnd_1
XFILLER_4_362 VGND VGND VPWR VPWR sky130_fd_sc_hd__fill_2
XTAP_TAPCELL_ROW_11_128 VGND VPWR sky130_fd_sc_hd__tapvpwrvgnd_1
XFILLER_5_137 VPWR VGND VPWR VGND sky130_ef_sc_hd__decap_12
XFILLER_1_310 VGND VGND VPWR VPWR sky130_fd_sc_hd__fill_1
XFILLER_1_321 VGND VGND VPWR VPWR sky130_fd_sc_hd__fill_2
XFILLER_1_387 VGND VGND VPWR VPWR sky130_fd_sc_hd__fill_1
XFILLER_4_41 VPWR VGND VPWR VGND sky130_ef_sc_hd__decap_12
XFILLER_4_85 VPWR VGND VPWR VGND sky130_ef_sc_hd__decap_12
XFILLER_3_9 VGND VGND VPWR VPWR sky130_fd_sc_hd__fill_1
XTAP_TAPCELL_ROW_0_31 VGND VPWR sky130_fd_sc_hd__tapvpwrvgnd_1
XFILLER_3_405 VPWR VGND VPWR VGND sky130_ef_sc_hd__decap_12
XFILLER_3_449 VGND VGND VPWR VPWR sky130_fd_sc_hd__decap_4
XFILLER_6_265 VGND VGND VPWR VPWR sky130_fd_sc_hd__decap_6
XFILLER_1_97 VPWR VGND VPWR VGND sky130_ef_sc_hd__decap_12
X_097_ NN4END[6] VGND VGND VPWR VPWR net104 sky130_fd_sc_hd__clkbuf_1
X_020_ FrameData[20] VGND VGND VPWR VPWR net13 sky130_fd_sc_hd__buf_1
XFILLER_3_202 VPWR VGND VPWR VGND sky130_ef_sc_hd__decap_12
XTAP_TAPCELL_ROW_6_85 VGND VPWR sky130_fd_sc_hd__tapvpwrvgnd_1
Xoutput17 net17 VGND VGND VPWR VPWR FrameData_O[24] sky130_fd_sc_hd__buf_2
Xoutput39 net39 VGND VGND VPWR VPWR FrameStrobe_O[15] sky130_fd_sc_hd__buf_2
XFILLER_0_249 VGND VGND VPWR VPWR sky130_fd_sc_hd__decap_3
Xoutput28 net28 VGND VGND VPWR VPWR FrameData_O[5] sky130_fd_sc_hd__buf_2
X_003_ FrameData[3] VGND VGND VPWR VPWR net26 sky130_fd_sc_hd__buf_1
XFILLER_7_393 VGND VGND VPWR VPWR sky130_fd_sc_hd__decap_4
XFILLER_7_85 VGND VGND VPWR VPWR sky130_fd_sc_hd__fill_1
XTAP_TAPCELL_ROW_8_102 VGND VPWR sky130_fd_sc_hd__tapvpwrvgnd_1
XFILLER_4_330 VPWR VGND VPWR VGND sky130_ef_sc_hd__decap_12
XTAP_TAPCELL_ROW_11_129 VGND VPWR sky130_fd_sc_hd__tapvpwrvgnd_1
XFILLER_5_149 VPWR VGND VPWR VGND sky130_ef_sc_hd__decap_12
XFILLER_4_53 VPWR VGND VPWR VGND sky130_ef_sc_hd__decap_12
XFILLER_4_97 VPWR VGND VPWR VGND sky130_ef_sc_hd__decap_12
XFILLER_10_421 VPWR VGND VPWR VGND sky130_ef_sc_hd__decap_12
XTAP_TAPCELL_ROW_0_32 VGND VPWR sky130_fd_sc_hd__tapvpwrvgnd_1
XFILLER_9_230 VPWR VGND VPWR VGND sky130_ef_sc_hd__decap_12
XFILLER_1_7 VGND VGND VPWR VPWR sky130_fd_sc_hd__fill_1
XFILLER_3_417 VPWR VGND VPWR VGND sky130_ef_sc_hd__decap_12
XFILLER_10_251 VGND VGND VPWR VPWR sky130_fd_sc_hd__fill_1
XFILLER_6_299 VGND VGND VPWR VPWR sky130_fd_sc_hd__decap_8
X_096_ NN4END[7] VGND VGND VPWR VPWR net103 sky130_fd_sc_hd__clkbuf_1
XFILLER_10_85 VPWR VGND VPWR VGND sky130_ef_sc_hd__decap_12
XTAP_TAPCELL_ROW_6_86 VGND VPWR sky130_fd_sc_hd__tapvpwrvgnd_1
XFILLER_3_214 VGND VGND VPWR VPWR sky130_fd_sc_hd__decap_8
XFILLER_3_225 VPWR VGND VPWR VGND sky130_ef_sc_hd__decap_12
Xoutput18 net18 VGND VGND VPWR VPWR FrameData_O[25] sky130_fd_sc_hd__buf_2
Xoutput29 net29 VGND VGND VPWR VPWR FrameData_O[6] sky130_fd_sc_hd__buf_2
X_079_ N4END[8] VGND VGND VPWR VPWR net86 sky130_fd_sc_hd__clkbuf_1
XFILLER_8_317 VPWR VGND VPWR VGND sky130_ef_sc_hd__decap_12
XFILLER_8_306 VGND VGND VPWR VPWR sky130_fd_sc_hd__fill_2
X_002_ FrameData[2] VGND VGND VPWR VPWR net23 sky130_fd_sc_hd__buf_1
XFILLER_7_361 VPWR VGND VPWR VGND sky130_ef_sc_hd__decap_12
XTAP_TAPCELL_ROW_8_103 VGND VPWR sky130_fd_sc_hd__tapvpwrvgnd_1
XPHY_EDGE_ROW_5_Right_5 VGND VGND VPWR VPWR sky130_fd_sc_hd__decap_3
XFILLER_8_125 VGND VGND VPWR VPWR sky130_fd_sc_hd__decap_3
XFILLER_4_342 VPWR VGND VPWR VGND sky130_ef_sc_hd__decap_12
XFILLER_1_334 VGND VGND VPWR VPWR sky130_fd_sc_hd__fill_2
XFILLER_2_109 VPWR VGND VPWR VGND sky130_ef_sc_hd__decap_12
XFILLER_4_65 VGND VGND VPWR VPWR sky130_fd_sc_hd__fill_2
XFILLER_10_433 VGND VGND VPWR VPWR sky130_fd_sc_hd__decap_8
XTAP_TAPCELL_ROW_0_33 VGND VPWR sky130_fd_sc_hd__tapvpwrvgnd_1
XFILLER_9_242 VPWR VGND VPWR VGND sky130_ef_sc_hd__decap_12
XFILLER_1_164 VGND VGND VPWR VPWR sky130_fd_sc_hd__fill_1
XFILLER_3_429 VPWR VGND VPWR VGND sky130_ef_sc_hd__decap_12
XFILLER_10_241 VGND VGND VPWR VPWR sky130_fd_sc_hd__fill_1
XFILLER_1_55 VGND VGND VPWR VPWR sky130_fd_sc_hd__fill_1
XFILLER_1_11 VPWR VGND VPWR VGND sky130_ef_sc_hd__decap_12
X_095_ NN4END[8] VGND VGND VPWR VPWR net102 sky130_fd_sc_hd__clkbuf_1
XFILLER_10_97 VPWR VGND VPWR VGND sky130_ef_sc_hd__decap_12
XTAP_TAPCELL_ROW_6_87 VGND VPWR sky130_fd_sc_hd__tapvpwrvgnd_1
XFILLER_3_237 VPWR VGND VPWR VGND sky130_ef_sc_hd__decap_12
X_078_ N4END[9] VGND VGND VPWR VPWR net85 sky130_fd_sc_hd__clkbuf_1
Xoutput19 net19 VGND VGND VPWR VPWR FrameData_O[26] sky130_fd_sc_hd__buf_2
XFILLER_8_329 VPWR VGND VPWR VGND sky130_ef_sc_hd__decap_12
X_001_ FrameData[1] VGND VGND VPWR VPWR net12 sky130_fd_sc_hd__buf_1
XFILLER_11_391 VGND VGND VPWR VPWR sky130_fd_sc_hd__fill_1
XFILLER_7_373 VPWR VGND VPWR VGND sky130_ef_sc_hd__decap_12
XPHY_EDGE_ROW_11_Right_11 VGND VGND VPWR VPWR sky130_fd_sc_hd__decap_3
XFILLER_8_159 VGND VGND VPWR VPWR sky130_fd_sc_hd__fill_1
XFILLER_4_365 VPWR VGND VPWR VGND sky130_ef_sc_hd__decap_12
XFILLER_4_354 VGND VGND VPWR VPWR sky130_fd_sc_hd__decap_8
XFILLER_1_357 VGND VGND VPWR VPWR sky130_fd_sc_hd__fill_1
XFILLER_4_173 VGND VGND VPWR VPWR sky130_fd_sc_hd__decap_3
XFILLER_4_195 VGND VGND VPWR VPWR sky130_fd_sc_hd__fill_1
XFILLER_10_401 VPWR VGND VPWR VGND sky130_ef_sc_hd__decap_12
XFILLER_9_254 VPWR VGND VPWR VGND sky130_ef_sc_hd__decap_12
XFILLER_9_221 VGND VGND VPWR VPWR sky130_fd_sc_hd__decap_3
XFILLER_1_121 VGND VGND VPWR VPWR sky130_fd_sc_hd__fill_2
XTAP_TAPCELL_ROW_0_34 VGND VPWR sky130_fd_sc_hd__tapvpwrvgnd_1
XFILLER_11_209 VGND VGND VPWR VPWR sky130_fd_sc_hd__fill_1
XPHY_EDGE_ROW_3_Left_15 VGND VGND VPWR VPWR sky130_fd_sc_hd__decap_3
XFILLER_10_297 VGND VGND VPWR VPWR sky130_fd_sc_hd__decap_8
XFILLER_6_224 VPWR VGND VPWR VGND sky130_ef_sc_hd__decap_12
XFILLER_1_23 VPWR VGND VPWR VGND sky130_ef_sc_hd__decap_12
X_094_ NN4END[9] VGND VGND VPWR VPWR net101 sky130_fd_sc_hd__clkbuf_1
XFILLER_5_290 VPWR VGND VPWR VGND sky130_ef_sc_hd__decap_12
XFILLER_10_32 VGND VGND VPWR VPWR sky130_fd_sc_hd__fill_1
XFILLER_3_249 VGND VGND VPWR VPWR sky130_fd_sc_hd__fill_2
X_077_ N4END[10] VGND VGND VPWR VPWR net84 sky130_fd_sc_hd__buf_1
XFILLER_7_330 VGND VGND VPWR VPWR sky130_fd_sc_hd__decap_3
X_000_ FrameData[0] VGND VGND VPWR VPWR net1 sky130_fd_sc_hd__buf_1
XFILLER_7_55 VGND VGND VPWR VPWR sky130_fd_sc_hd__fill_1
XFILLER_7_385 VGND VGND VPWR VPWR sky130_fd_sc_hd__decap_6
XFILLER_8_105 VPWR VGND VPWR VGND sky130_ef_sc_hd__decap_12
XFILLER_4_377 VPWR VGND VPWR VGND sky130_ef_sc_hd__decap_12
XFILLER_4_300 VGND VGND VPWR VPWR sky130_fd_sc_hd__decap_8
XTAP_TAPCELL_ROW_3_56 VGND VPWR sky130_fd_sc_hd__tapvpwrvgnd_1
XFILLER_9_447 VGND VGND VPWR VPWR sky130_fd_sc_hd__fill_1
XFILLER_0_391 VGND VGND VPWR VPWR sky130_fd_sc_hd__fill_1
XFILLER_4_141 VPWR VGND VPWR VGND sky130_ef_sc_hd__decap_12
XFILLER_10_413 VGND VGND VPWR VPWR sky130_fd_sc_hd__decap_6
XFILLER_9_266 VPWR VGND VPWR VGND sky130_ef_sc_hd__decap_12
XFILLER_8_3 VGND VGND VPWR VPWR sky130_fd_sc_hd__decap_6
XTAP_TAPCELL_ROW_0_24 VGND VPWR sky130_fd_sc_hd__tapvpwrvgnd_1
XTAP_TAPCELL_ROW_0_35 VGND VPWR sky130_fd_sc_hd__tapvpwrvgnd_1
XFILLER_6_236 VPWR VGND VPWR VGND sky130_ef_sc_hd__decap_12
X_093_ NN4END[10] VGND VGND VPWR VPWR net100 sky130_fd_sc_hd__clkbuf_1
XFILLER_1_57 VPWR VGND VPWR VGND sky130_ef_sc_hd__decap_12
XFILLER_1_35 VPWR VGND VPWR VGND sky130_ef_sc_hd__decap_12
XFILLER_2_453 VGND VGND VPWR VPWR sky130_fd_sc_hd__fill_1
X_076_ N4END[11] VGND VGND VPWR VPWR net83 sky130_fd_sc_hd__clkbuf_1
XFILLER_2_261 VPWR VGND VPWR VGND sky130_ef_sc_hd__decap_12
XFILLER_8_309 VGND VGND VPWR VPWR sky130_fd_sc_hd__decap_3
XFILLER_11_393 VGND VGND VPWR VPWR sky130_fd_sc_hd__fill_1
X_059_ N2MID[4] VGND VGND VPWR VPWR net60 sky130_fd_sc_hd__buf_1
XFILLER_7_397 VGND VGND VPWR VPWR sky130_fd_sc_hd__fill_1
XFILLER_8_139 VGND VGND VPWR VPWR sky130_fd_sc_hd__fill_1
XFILLER_8_117 VGND VGND VPWR VPWR sky130_fd_sc_hd__decap_8
XTAP_TAPCELL_ROW_3_57 VGND VPWR sky130_fd_sc_hd__tapvpwrvgnd_1
XPHY_EDGE_ROW_9_Right_9 VGND VGND VPWR VPWR sky130_fd_sc_hd__decap_3
XFILLER_4_389 VPWR VGND VPWR VGND sky130_ef_sc_hd__decap_12
XFILLER_5_109 VGND VGND VPWR VPWR sky130_fd_sc_hd__decap_3
XFILLER_1_304 VGND VGND VPWR VPWR sky130_fd_sc_hd__decap_6
XFILLER_1_315 VGND VGND VPWR VPWR sky130_fd_sc_hd__fill_1
XFILLER_1_337 VGND VGND VPWR VPWR sky130_fd_sc_hd__fill_2
XFILLER_4_153 VPWR VGND VPWR VGND sky130_ef_sc_hd__decap_12
XFILLER_4_197 VPWR VGND VPWR VGND sky130_ef_sc_hd__decap_12
XTAP_TAPCELL_ROW_0_25 VGND VPWR sky130_fd_sc_hd__tapvpwrvgnd_1
XTAP_TAPCELL_ROW_0_36 VGND VPWR sky130_fd_sc_hd__tapvpwrvgnd_1
XFILLER_9_278 VGND VGND VPWR VPWR sky130_fd_sc_hd__fill_2
XFILLER_10_288 VGND VGND VPWR VPWR sky130_fd_sc_hd__decap_6
XFILLER_6_248 VGND VGND VPWR VPWR sky130_fd_sc_hd__decap_4
X_092_ NN4END[11] VGND VGND VPWR VPWR net99 sky130_fd_sc_hd__clkbuf_1
XFILLER_1_69 VGND VGND VPWR VPWR sky130_fd_sc_hd__fill_1
XFILLER_1_47 VGND VGND VPWR VPWR sky130_fd_sc_hd__decap_8
XFILLER_2_421 VPWR VGND VPWR VGND sky130_ef_sc_hd__decap_12
XFILLER_5_281 VGND VGND VPWR VPWR sky130_fd_sc_hd__decap_4
XFILLER_5_270 VGND VGND VPWR VPWR sky130_fd_sc_hd__fill_1
XFILLER_2_240 VGND VGND VPWR VPWR sky130_fd_sc_hd__fill_2
XFILLER_2_251 VGND VGND VPWR VPWR sky130_fd_sc_hd__fill_1