*SPEF "ieee 1481-1999"
*DESIGN "N_term_DSP"
*DATE "17:44:22 Thursday April 03, 2025"
*VENDOR "The OpenROAD Project"
*PROGRAM "OpenROAD"
*VERSION "87af90f72f3f9be1fdfa1d886f0dd8d8b8f34694"
*DESIGN_FLOW "NAME_SCOPE LOCAL" "PIN_CAP NONE"
*DIVIDER /
*DELIMITER :
*BUS_DELIMITER []
*T_UNIT 1 NS
*C_UNIT 1 PF
*R_UNIT 1 OHM
*L_UNIT 1 HENRY

*NAME_MAP
*1 FrameData[0]
*2 FrameData[10]
*3 FrameData[11]
*4 FrameData[12]
*5 FrameData[13]
*6 FrameData[14]
*7 FrameData[15]
*8 FrameData[16]
*9 FrameData[17]
*10 FrameData[18]
*11 FrameData[19]
*12 FrameData[1]
*13 FrameData[20]
*14 FrameData[21]
*15 FrameData[22]
*16 FrameData[23]
*17 FrameData[24]
*18 FrameData[25]
*19 FrameData[26]
*20 FrameData[27]
*21 FrameData[28]
*22 FrameData[29]
*23 FrameData[2]
*24 FrameData[30]
*25 FrameData[31]
*26 FrameData[3]
*27 FrameData[4]
*28 FrameData[5]
*29 FrameData[6]
*30 FrameData[7]
*31 FrameData[8]
*32 FrameData[9]
*33 FrameData_O[0]
*34 FrameData_O[10]
*35 FrameData_O[11]
*36 FrameData_O[12]
*37 FrameData_O[13]
*38 FrameData_O[14]
*39 FrameData_O[15]
*40 FrameData_O[16]
*41 FrameData_O[17]
*42 FrameData_O[18]
*43 FrameData_O[19]
*44 FrameData_O[1]
*45 FrameData_O[20]
*46 FrameData_O[21]
*47 FrameData_O[22]
*48 FrameData_O[23]
*49 FrameData_O[24]
*50 FrameData_O[25]
*51 FrameData_O[26]
*52 FrameData_O[27]
*53 FrameData_O[28]
*54 FrameData_O[29]
*55 FrameData_O[2]
*56 FrameData_O[30]
*57 FrameData_O[31]
*58 FrameData_O[3]
*59 FrameData_O[4]
*60 FrameData_O[5]
*61 FrameData_O[6]
*62 FrameData_O[7]
*63 FrameData_O[8]
*64 FrameData_O[9]
*65 FrameStrobe[0]
*66 FrameStrobe[10]
*67 FrameStrobe[11]
*68 FrameStrobe[12]
*69 FrameStrobe[13]
*70 FrameStrobe[14]
*71 FrameStrobe[15]
*72 FrameStrobe[16]
*73 FrameStrobe[17]
*74 FrameStrobe[18]
*75 FrameStrobe[19]
*76 FrameStrobe[1]
*77 FrameStrobe[2]
*78 FrameStrobe[3]
*79 FrameStrobe[4]
*80 FrameStrobe[5]
*81 FrameStrobe[6]
*82 FrameStrobe[7]
*83 FrameStrobe[8]
*84 FrameStrobe[9]
*85 FrameStrobe_O[0]
*86 FrameStrobe_O[10]
*87 FrameStrobe_O[11]
*88 FrameStrobe_O[12]
*89 FrameStrobe_O[13]
*90 FrameStrobe_O[14]
*91 FrameStrobe_O[15]
*92 FrameStrobe_O[16]
*93 FrameStrobe_O[17]
*94 FrameStrobe_O[18]
*95 FrameStrobe_O[19]
*96 FrameStrobe_O[1]
*97 FrameStrobe_O[2]
*98 FrameStrobe_O[3]
*99 FrameStrobe_O[4]
*100 FrameStrobe_O[5]
*101 FrameStrobe_O[6]
*102 FrameStrobe_O[7]
*103 FrameStrobe_O[8]
*104 FrameStrobe_O[9]
*105 N1END[0]
*106 N1END[1]
*107 N1END[2]
*108 N1END[3]
*109 N2END[0]
*110 N2END[1]
*111 N2END[2]
*112 N2END[3]
*113 N2END[4]
*114 N2END[5]
*115 N2END[6]
*116 N2END[7]
*117 N2MID[0]
*118 N2MID[1]
*119 N2MID[2]
*120 N2MID[3]
*121 N2MID[4]
*122 N2MID[5]
*123 N2MID[6]
*124 N2MID[7]
*125 N4END[0]
*126 N4END[10]
*127 N4END[11]
*128 N4END[12]
*129 N4END[13]
*130 N4END[14]
*131 N4END[15]
*132 N4END[1]
*133 N4END[2]
*134 N4END[3]
*135 N4END[4]
*136 N4END[5]
*137 N4END[6]
*138 N4END[7]
*139 N4END[8]
*140 N4END[9]
*141 NN4END[0]
*142 NN4END[10]
*143 NN4END[11]
*144 NN4END[12]
*145 NN4END[13]
*146 NN4END[14]
*147 NN4END[15]
*148 NN4END[1]
*149 NN4END[2]
*150 NN4END[3]
*151 NN4END[4]
*152 NN4END[5]
*153 NN4END[6]
*154 NN4END[7]
*155 NN4END[8]
*156 NN4END[9]
*157 S1BEG[0]
*158 S1BEG[1]
*159 S1BEG[2]
*160 S1BEG[3]
*161 S2BEG[0]
*162 S2BEG[1]
*163 S2BEG[2]
*164 S2BEG[3]
*165 S2BEG[4]
*166 S2BEG[5]
*167 S2BEG[6]
*168 S2BEG[7]
*169 S2BEGb[0]
*170 S2BEGb[1]
*171 S2BEGb[2]
*172 S2BEGb[3]
*173 S2BEGb[4]
*174 S2BEGb[5]
*175 S2BEGb[6]
*176 S2BEGb[7]
*177 S4BEG[0]
*178 S4BEG[10]
*179 S4BEG[11]
*180 S4BEG[12]
*181 S4BEG[13]
*182 S4BEG[14]
*183 S4BEG[15]
*184 S4BEG[1]
*185 S4BEG[2]
*186 S4BEG[3]
*187 S4BEG[4]
*188 S4BEG[5]
*189 S4BEG[6]
*190 S4BEG[7]
*191 S4BEG[8]
*192 S4BEG[9]
*193 SS4BEG[0]
*194 SS4BEG[10]
*195 SS4BEG[11]
*196 SS4BEG[12]
*197 SS4BEG[13]
*198 SS4BEG[14]
*199 SS4BEG[15]
*200 SS4BEG[1]
*201 SS4BEG[2]
*202 SS4BEG[3]
*203 SS4BEG[4]
*204 SS4BEG[5]
*205 SS4BEG[6]
*206 SS4BEG[7]
*207 SS4BEG[8]
*208 SS4BEG[9]
*209 UserCLK
*210 UserCLKo
*213 net1
*214 net10
*215 net100
*216 net101
*217 net102
*218 net103
*219 net104
*220 net105
*221 net11
*222 net12
*223 net13
*224 net14
*225 net15
*226 net16
*227 net17
*228 net18
*229 net19
*230 net2
*231 net20
*232 net21
*233 net22
*234 net23
*235 net24
*236 net25
*237 net26
*238 net27
*239 net28
*240 net29
*241 net3
*242 net30
*243 net31
*244 net32
*245 net33
*246 net34
*247 net35
*248 net36
*249 net37
*250 net38
*251 net39
*252 net4
*253 net40
*254 net41
*255 net42
*256 net43
*257 net44
*258 net45
*259 net46
*260 net47
*261 net48
*262 net49
*263 net5
*264 net50
*265 net51
*266 net52
*267 net53
*268 net54
*269 net55
*270 net56
*271 net57
*272 net58
*273 net59
*274 net6
*275 net60
*276 net61
*277 net62
*278 net63
*279 net64
*280 net65
*281 net66
*282 net67
*283 net68
*284 net69
*285 net7
*286 net70
*287 net71
*288 net72
*289 net73
*290 net74
*291 net75
*292 net76
*293 net77
*294 net78
*295 net79
*296 net8
*297 net80
*298 net81
*299 net82
*300 net83
*301 net84
*302 net85
*303 net86
*304 net87
*305 net88
*306 net89
*307 net9
*308 net90
*309 net91
*310 net92
*311 net93
*312 net94
*313 net95
*314 net96
*315 net97
*316 net98
*317 net99
*318 FILLER_0_0
*319 FILLER_0_105
*320 FILLER_0_112
*321 FILLER_0_119
*322 FILLER_0_126
*323 FILLER_0_133
*324 FILLER_0_14
*325 FILLER_0_140
*326 FILLER_0_147
*327 FILLER_0_154
*328 FILLER_0_161
*329 FILLER_0_21
*330 FILLER_0_28
*331 FILLER_0_285
*332 FILLER_0_292
*333 FILLER_0_299
*334 FILLER_0_306
*335 FILLER_0_313
*336 FILLER_0_320
*337 FILLER_0_327
*338 FILLER_0_334
*339 FILLER_0_341
*340 FILLER_0_348
*341 FILLER_0_35
*342 FILLER_0_355
*343 FILLER_0_362
*344 FILLER_0_42
*345 FILLER_0_49
*346 FILLER_0_56
*347 FILLER_0_63
*348 FILLER_0_7
*349 FILLER_0_70
*350 FILLER_0_77
*351 FILLER_0_84
*352 FILLER_0_91
*353 FILLER_0_98
*354 FILLER_10_0
*355 FILLER_10_105
*356 FILLER_10_112
*357 FILLER_10_119
*358 FILLER_10_126
*359 FILLER_10_133
*360 FILLER_10_14
*361 FILLER_10_140
*362 FILLER_10_147
*363 FILLER_10_154
*364 FILLER_10_161
*365 FILLER_10_168
*366 FILLER_10_175
*367 FILLER_10_182
*368 FILLER_10_189
*369 FILLER_10_196
*370 FILLER_10_203
*371 FILLER_10_21
*372 FILLER_10_210
*373 FILLER_10_217
*374 FILLER_10_224
*375 FILLER_10_231
*376 FILLER_10_238
*377 FILLER_10_245
*378 FILLER_10_252
*379 FILLER_10_259
*380 FILLER_10_266
*381 FILLER_10_273
*382 FILLER_10_28
*383 FILLER_10_280
*384 FILLER_10_287
*385 FILLER_10_294
*386 FILLER_10_301
*387 FILLER_10_308
*388 FILLER_10_315
*389 FILLER_10_322
*390 FILLER_10_329
*391 FILLER_10_336
*392 FILLER_10_343
*393 FILLER_10_35
*394 FILLER_10_350
*395 FILLER_10_357
*396 FILLER_10_364
*397 FILLER_10_368
*398 FILLER_10_42
*399 FILLER_10_49
*400 FILLER_10_56
*401 FILLER_10_63
*402 FILLER_10_7
*403 FILLER_10_70
*404 FILLER_10_77
*405 FILLER_10_84
*406 FILLER_10_91
*407 FILLER_10_98
*408 FILLER_11_0
*409 FILLER_11_105
*410 FILLER_11_112
*411 FILLER_11_123
*412 FILLER_11_130
*413 FILLER_11_141
*414 FILLER_11_148
*415 FILLER_11_15
*416 FILLER_11_159
*417 FILLER_11_166
*418 FILLER_11_177
*419 FILLER_11_184
*420 FILLER_11_195
*421 FILLER_11_202
*422 FILLER_11_213
*423 FILLER_11_22
*424 FILLER_11_220
*425 FILLER_11_231
*426 FILLER_11_238
*427 FILLER_11_249
*428 FILLER_11_256
*429 FILLER_11_267
*430 FILLER_11_274
*431 FILLER_11_285
*432 FILLER_11_292
*433 FILLER_11_303
*434 FILLER_11_310
*435 FILLER_11_321
*436 FILLER_11_328
*437 FILLER_11_33
*438 FILLER_11_339
*439 FILLER_11_346
*440 FILLER_11_357
*441 FILLER_11_361
*442 FILLER_11_375
*443 FILLER_11_40
*444 FILLER_11_51
*445 FILLER_11_58
*446 FILLER_11_69
*447 FILLER_11_7
*448 FILLER_11_76
*449 FILLER_11_87
*450 FILLER_11_94
*451 FILLER_1_0
*452 FILLER_1_105
*453 FILLER_1_112
*454 FILLER_1_119
*455 FILLER_1_126
*456 FILLER_1_133
*457 FILLER_1_14
*458 FILLER_1_140
*459 FILLER_1_147
*460 FILLER_1_154
*461 FILLER_1_161
*462 FILLER_1_168
*463 FILLER_1_172
*464 FILLER_1_197
*465 FILLER_1_204
*466 FILLER_1_21
*467 FILLER_1_275
*468 FILLER_1_28
*469 FILLER_1_282
*470 FILLER_1_289
*471 FILLER_1_296
*472 FILLER_1_303
*473 FILLER_1_310
*474 FILLER_1_317
*475 FILLER_1_324
*476 FILLER_1_331
*477 FILLER_1_338
*478 FILLER_1_345
*479 FILLER_1_35
*480 FILLER_1_352
*481 FILLER_1_359
*482 FILLER_1_366
*483 FILLER_1_42
*484 FILLER_1_49
*485 FILLER_1_56
*486 FILLER_1_63
*487 FILLER_1_7
*488 FILLER_1_70
*489 FILLER_1_77
*490 FILLER_1_84
*491 FILLER_1_91
*492 FILLER_1_98
*493 FILLER_2_0
*494 FILLER_2_105
*495 FILLER_2_112
*496 FILLER_2_119
*497 FILLER_2_131
*498 FILLER_2_138
*499 FILLER_2_14
*500 FILLER_2_145
*501 FILLER_2_152
*502 FILLER_2_159
*503 FILLER_2_166
*504 FILLER_2_170
*505 FILLER_2_180
*506 FILLER_2_187
*507 FILLER_2_194
*508 FILLER_2_201
*509 FILLER_2_208
*510 FILLER_2_21
*511 FILLER_2_223
*512 FILLER_2_230
*513 FILLER_2_237
*514 FILLER_2_244
*515 FILLER_2_251
*516 FILLER_2_258
*517 FILLER_2_265
*518 FILLER_2_272
*519 FILLER_2_274
*520 FILLER_2_279
*521 FILLER_2_28
*522 FILLER_2_286
*523 FILLER_2_288
*524 FILLER_2_293
*525 FILLER_2_300
*526 FILLER_2_307
*527 FILLER_2_313
*528 FILLER_2_317
*529 FILLER_2_322
*530 FILLER_2_329
*531 FILLER_2_336
*532 FILLER_2_343
*533 FILLER_2_35
*534 FILLER_2_350
*535 FILLER_2_357
*536 FILLER_2_364
*537 FILLER_2_371
*538 FILLER_2_375
*539 FILLER_2_42
*540 FILLER_2_49
*541 FILLER_2_56
*542 FILLER_2_63
*543 FILLER_2_7
*544 FILLER_2_70
*545 FILLER_2_77
*546 FILLER_2_84
*547 FILLER_2_91
*548 FILLER_2_98
*549 FILLER_3_0
*550 FILLER_3_106
*551 FILLER_3_110
*552 FILLER_3_135
*553 FILLER_3_14
*554 FILLER_3_141
*555 FILLER_3_148
*556 FILLER_3_191
*557 FILLER_3_197
*558 FILLER_3_204
*559 FILLER_3_206
*560 FILLER_3_21
*561 FILLER_3_243
*562 FILLER_3_250
*563 FILLER_3_261
*564 FILLER_3_268
*565 FILLER_3_270
*566 FILLER_3_275
*567 FILLER_3_28
*568 FILLER_3_282
*569 FILLER_3_287
*570 FILLER_3_298
*571 FILLER_3_305
*572 FILLER_3_312
*573 FILLER_3_320
*574 FILLER_3_322
*575 FILLER_3_335
*576 FILLER_3_342
*577 FILLER_3_349
*578 FILLER_3_35
*579 FILLER_3_356
*580 FILLER_3_363
*581 FILLER_3_370
*582 FILLER_3_372
*583 FILLER_3_42
*584 FILLER_3_49
*585 FILLER_3_56
*586 FILLER_3_63
*587 FILLER_3_7
*588 FILLER_3_70
*589 FILLER_3_72
*590 FILLER_3_81
*591 FILLER_3_88
*592 FILLER_3_90
*593 FILLER_3_99
*594 FILLER_4_0
*595 FILLER_4_104
*596 FILLER_4_111
*597 FILLER_4_118
*598 FILLER_4_122
*599 FILLER_4_128
*600 FILLER_4_135
*601 FILLER_4_14
*602 FILLER_4_142
*603 FILLER_4_149
*604 FILLER_4_153
*605 FILLER_4_158
*606 FILLER_4_169
*607 FILLER_4_179
*608 FILLER_4_186
*609 FILLER_4_193
*610 FILLER_4_200
*611 FILLER_4_207
*612 FILLER_4_21
*613 FILLER_4_214
*614 FILLER_4_224
*615 FILLER_4_231
*616 FILLER_4_238
*617 FILLER_4_245
*618 FILLER_4_252
*619 FILLER_4_254
*620 FILLER_4_259
*621 FILLER_4_264
*622 FILLER_4_271
*623 FILLER_4_28
*624 FILLER_4_282
*625 FILLER_4_289
*626 FILLER_4_296
*627 FILLER_4_303
*628 FILLER_4_310
*629 FILLER_4_312
*630 FILLER_4_317
*631 FILLER_4_324
*632 FILLER_4_331
*633 FILLER_4_339
*634 FILLER_4_346
*635 FILLER_4_35
*636 FILLER_4_353
*637 FILLER_4_360
*638 FILLER_4_367
*639 FILLER_4_374
*640 FILLER_4_376
*641 FILLER_4_42
*642 FILLER_4_49
*643 FILLER_4_56
*644 FILLER_4_7
*645 FILLER_4_71
*646 FILLER_4_88
*647 FILLER_4_97
*648 FILLER_5_0
*649 FILLER_5_103
*650 FILLER_5_110
*651 FILLER_5_117
*652 FILLER_5_124
*653 FILLER_5_131
*654 FILLER_5_138
*655 FILLER_5_14
*656 FILLER_5_145
*657 FILLER_5_152
*658 FILLER_5_159
*659 FILLER_5_166
*660 FILLER_5_173
*661 FILLER_5_180
*662 FILLER_5_187
*663 FILLER_5_19
*664 FILLER_5_194
*665 FILLER_5_201
*666 FILLER_5_208
*667 FILLER_5_215
*668 FILLER_5_222
*669 FILLER_5_229
*670 FILLER_5_236
*671 FILLER_5_243
*672 FILLER_5_250
*673 FILLER_5_257
*674 FILLER_5_26
*675 FILLER_5_264
*676 FILLER_5_271
*677 FILLER_5_278
*678 FILLER_5_285
*679 FILLER_5_292
*680 FILLER_5_299
*681 FILLER_5_306
*682 FILLER_5_313
*683 FILLER_5_320
*684 FILLER_5_327
*685 FILLER_5_33
*686 FILLER_5_334
*687 FILLER_5_341
*688 FILLER_5_348
*689 FILLER_5_355
*690 FILLER_5_362
*691 FILLER_5_369
*692 FILLER_5_376
*693 FILLER_5_40
*694 FILLER_5_47
*695 FILLER_5_54
*696 FILLER_5_61
*697 FILLER_5_68
*698 FILLER_5_7
*699 FILLER_5_75
*700 FILLER_5_82
*701 FILLER_5_89
*702 FILLER_5_96
*703 FILLER_6_0
*704 FILLER_6_103
*705 FILLER_6_110
*706 FILLER_6_117
*707 FILLER_6_124
*708 FILLER_6_131
*709 FILLER_6_138
*710 FILLER_6_14
*711 FILLER_6_145
*712 FILLER_6_152
*713 FILLER_6_159
*714 FILLER_6_166
*715 FILLER_6_173
*716 FILLER_6_180
*717 FILLER_6_187
*718 FILLER_6_19
*719 FILLER_6_194
*720 FILLER_6_201
*721 FILLER_6_208
*722 FILLER_6_215
*723 FILLER_6_222
*724 FILLER_6_229
*725 FILLER_6_236
*726 FILLER_6_243
*727 FILLER_6_250
*728 FILLER_6_257
*729 FILLER_6_26
*730 FILLER_6_264
*731 FILLER_6_271
*732 FILLER_6_273
*733 FILLER_6_278
*734 FILLER_6_285
*735 FILLER_6_292
*736 FILLER_6_299
*737 FILLER_6_306
*738 FILLER_6_313
*739 FILLER_6_319
*740 FILLER_6_326
*741 FILLER_6_33
*742 FILLER_6_333
*743 FILLER_6_340
*744 FILLER_6_347
*745 FILLER_6_354
*746 FILLER_6_361
*747 FILLER_6_368
*748 FILLER_6_375
*749 FILLER_6_40
*750 FILLER_6_47
*751 FILLER_6_54
*752 FILLER_6_61
*753 FILLER_6_68
*754 FILLER_6_7
*755 FILLER_6_75
*756 FILLER_6_82
*757 FILLER_6_89
*758 FILLER_6_96
*759 FILLER_7_0
*760 FILLER_7_101
*761 FILLER_7_108
*762 FILLER_7_115
*763 FILLER_7_122
*764 FILLER_7_129
*765 FILLER_7_136
*766 FILLER_7_14
*767 FILLER_7_143
*768 FILLER_7_150
*769 FILLER_7_157
*770 FILLER_7_164
*771 FILLER_7_171
*772 FILLER_7_178
*773 FILLER_7_185
*774 FILLER_7_192
*775 FILLER_7_199
*776 FILLER_7_206
*777 FILLER_7_21
*778 FILLER_7_213
*779 FILLER_7_220
*780 FILLER_7_227
*781 FILLER_7_234
*782 FILLER_7_241
*783 FILLER_7_248
*784 FILLER_7_255
*785 FILLER_7_262
*786 FILLER_7_269
*787 FILLER_7_276
*788 FILLER_7_28
*789 FILLER_7_283
*790 FILLER_7_290
*791 FILLER_7_297
*792 FILLER_7_304
*793 FILLER_7_311
*794 FILLER_7_318
*795 FILLER_7_325
*796 FILLER_7_332
*797 FILLER_7_339
*798 FILLER_7_346
*799 FILLER_7_35
*800 FILLER_7_353
*801 FILLER_7_360
*802 FILLER_7_367
*803 FILLER_7_374
*804 FILLER_7_376
*805 FILLER_7_42
*806 FILLER_7_46
*807 FILLER_7_52
*808 FILLER_7_59
*809 FILLER_7_66
*810 FILLER_7_7
*811 FILLER_7_73
*812 FILLER_7_80
*813 FILLER_7_87
*814 FILLER_7_94
*815 FILLER_8_0
*816 FILLER_8_100
*817 FILLER_8_102
*818 FILLER_8_111
*819 FILLER_8_118
*820 FILLER_8_125
*821 FILLER_8_132
*822 FILLER_8_139
*823 FILLER_8_14
*824 FILLER_8_146
*825 FILLER_8_153
*826 FILLER_8_160
*827 FILLER_8_167
*828 FILLER_8_174
*829 FILLER_8_181
*830 FILLER_8_188
*831 FILLER_8_195
*832 FILLER_8_202
*833 FILLER_8_209
*834 FILLER_8_21
*835 FILLER_8_216
*836 FILLER_8_223
*837 FILLER_8_230
*838 FILLER_8_237
*839 FILLER_8_244
*840 FILLER_8_251
*841 FILLER_8_258
*842 FILLER_8_265
*843 FILLER_8_272
*844 FILLER_8_279
*845 FILLER_8_28
*846 FILLER_8_286
*847 FILLER_8_290
*848 FILLER_8_296
*849 FILLER_8_303
*850 FILLER_8_310
*851 FILLER_8_317
*852 FILLER_8_324
*853 FILLER_8_331
*854 FILLER_8_338
*855 FILLER_8_345
*856 FILLER_8_35
*857 FILLER_8_352
*858 FILLER_8_359
*859 FILLER_8_366
*860 FILLER_8_373
*861 FILLER_8_42
*862 FILLER_8_49
*863 FILLER_8_56
*864 FILLER_8_63
*865 FILLER_8_7
*866 FILLER_8_70
*867 FILLER_8_77
*868 FILLER_8_84
*869 FILLER_8_91
*870 FILLER_8_95
*871 FILLER_9_0
*872 FILLER_9_102
*873 FILLER_9_109
*874 FILLER_9_116
*875 FILLER_9_120
*876 FILLER_9_129
*877 FILLER_9_131
*878 FILLER_9_136
*879 FILLER_9_14
*880 FILLER_9_148
*881 FILLER_9_153
*882 FILLER_9_168
*883 FILLER_9_170
*884 FILLER_9_175
*885 FILLER_9_184
*886 FILLER_9_189
*887 FILLER_9_198
*888 FILLER_9_200
*889 FILLER_9_209
*890 FILLER_9_21
*891 FILLER_9_213
*892 FILLER_9_218
*893 FILLER_9_222
*894 FILLER_9_228
*895 FILLER_9_235
*896 FILLER_9_239
*897 FILLER_9_245
*898 FILLER_9_253
*899 FILLER_9_258
*900 FILLER_9_265
*901 FILLER_9_269
*902 FILLER_9_28
*903 FILLER_9_283
*904 FILLER_9_294
*905 FILLER_9_301
*906 FILLER_9_308
*907 FILLER_9_315
*908 FILLER_9_322
*909 FILLER_9_329
*910 FILLER_9_336
*911 FILLER_9_343
*912 FILLER_9_35
*913 FILLER_9_350
*914 FILLER_9_357
*915 FILLER_9_364
*916 FILLER_9_371
*917 FILLER_9_375
*918 FILLER_9_46
*919 FILLER_9_53
*920 FILLER_9_58
*921 FILLER_9_65
*922 FILLER_9_69
*923 FILLER_9_7
*924 FILLER_9_74
*925 FILLER_9_81
*926 FILLER_9_88
*927 FILLER_9_95
*928 _000_
*929 _001_
*930 _002_
*931 _003_
*932 _004_
*933 _005_
*934 _006_
*935 _007_
*936 _008_
*937 _009_
*938 _010_
*939 _011_
*940 _012_
*941 _013_
*942 _014_
*943 _015_
*944 _016_
*945 _017_
*946 _018_
*947 _019_
*948 _020_
*949 _021_
*950 _022_
*951 _023_
*952 _024_
*953 _025_
*954 _026_
*955 _027_
*956 _028_
*957 _029_
*958 _030_
*959 _031_
*960 _032_
*961 _033_
*962 _034_
*963 _035_
*964 _036_
*965 _037_
*966 _038_
*967 _039_
*968 _040_
*969 _041_
*970 _042_
*971 _043_
*972 _044_
*973 _045_
*974 _046_
*975 _047_
*976 _048_
*977 _049_
*978 _050_
*979 _051_
*980 _052_
*981 _053_
*982 _054_
*983 _055_
*984 _056_
*985 _057_
*986 _058_
*987 _059_
*988 _060_
*989 _061_
*990 _062_
*991 _063_
*992 _064_
*993 _065_
*994 _066_
*995 _067_
*996 _068_
*997 _069_
*998 _070_
*999 _071_
*1000 _072_
*1001 _073_
*1002 _074_
*1003 _075_
*1004 _076_
*1005 _077_
*1006 _078_
*1007 _079_
*1008 _080_
*1009 _081_
*1010 _082_
*1011 _083_
*1012 _084_
*1013 _085_
*1014 _086_
*1015 _087_
*1016 _088_
*1017 _089_
*1018 _090_
*1019 _091_
*1020 _092_
*1021 _093_
*1022 _094_
*1023 _095_
*1024 _096_
*1025 _097_
*1026 _098_
*1027 _099_
*1028 _100_
*1029 _101_
*1030 _102_
*1031 _103_
*1032 _104_
*1033 output1
*1034 output10
*1035 output100
*1036 output101
*1037 output102
*1038 output103
*1039 output104
*1040 output105
*1041 output11
*1042 output12
*1043 output13
*1044 output14
*1045 output15
*1046 output16
*1047 output17
*1048 output18
*1049 output19
*1050 output2
*1051 output20
*1052 output21
*1053 output22
*1054 output23
*1055 output24
*1056 output25
*1057 output26
*1058 output27
*1059 output28
*1060 output29
*1061 output3
*1062 output30
*1063 output31
*1064 output32
*1065 output33
*1066 output34
*1067 output35
*1068 output36
*1069 output37
*1070 output38
*1071 output39
*1072 output4
*1073 output40
*1074 output41
*1075 output42
*1076 output43
*1077 output44
*1078 output45
*1079 output46
*1080 output47
*1081 output48
*1082 output49
*1083 output5
*1084 output50
*1085 output51
*1086 output52
*1087 output53
*1088 output54
*1089 output55
*1090 output56
*1091 output57
*1092 output58
*1093 output59
*1094 output6
*1095 output60
*1096 output61
*1097 output62
*1098 output63
*1099 output64
*1100 output65
*1101 output66
*1102 output67
*1103 output68
*1104 output69
*1105 output7
*1106 output70
*1107 output71
*1108 output72
*1109 output73
*1110 output74
*1111 output75
*1112 output76
*1113 output77
*1114 output78
*1115 output79
*1116 output8
*1117 output80
*1118 output81
*1119 output82
*1120 output83
*1121 output84
*1122 output85
*1123 output86
*1124 output87
*1125 output88
*1126 output89
*1127 output9
*1128 output90
*1129 output91
*1130 output92
*1131 output93
*1132 output94
*1133 output95
*1134 output96
*1135 output97
*1136 output98
*1137 output99

*PORTS
FrameData[0] I
FrameData[10] I
FrameData[11] I
FrameData[12] I
FrameData[13] I
FrameData[14] I
FrameData[15] I
FrameData[16] I
FrameData[17] I
FrameData[18] I
FrameData[19] I
FrameData[1] I
FrameData[20] I
FrameData[21] I
FrameData[22] I
FrameData[23] I
FrameData[24] I
FrameData[25] I
FrameData[26] I
FrameData[27] I
FrameData[28] I
FrameData[29] I
FrameData[2] I
FrameData[30] I
FrameData[31] I
FrameData[3] I
FrameData[4] I
FrameData[5] I
FrameData[6] I
FrameData[7] I
FrameData[8] I
FrameData[9] I
FrameData_O[0] O
FrameData_O[10] O
FrameData_O[11] O
FrameData_O[12] O
FrameData_O[13] O
FrameData_O[14] O
FrameData_O[15] O
FrameData_O[16] O
FrameData_O[17] O
FrameData_O[18] O
FrameData_O[19] O
FrameData_O[1] O
FrameData_O[20] O
FrameData_O[21] O
FrameData_O[22] O
FrameData_O[23] O
FrameData_O[24] O
FrameData_O[25] O
FrameData_O[26] O
FrameData_O[27] O
FrameData_O[28] O
FrameData_O[29] O
FrameData_O[2] O
FrameData_O[30] O
FrameData_O[31] O
FrameData_O[3] O
FrameData_O[4] O
FrameData_O[5] O
FrameData_O[6] O
FrameData_O[7] O
FrameData_O[8] O
FrameData_O[9] O
FrameStrobe[0] I
FrameStrobe[10] I
FrameStrobe[11] I
FrameStrobe[12] I
FrameStrobe[13] I
FrameStrobe[14] I
FrameStrobe[15] I
FrameStrobe[16] I
FrameStrobe[17] I
FrameStrobe[18] I
FrameStrobe[19] I
FrameStrobe[1] I
FrameStrobe[2] I
FrameStrobe[3] I
FrameStrobe[4] I
FrameStrobe[5] I
FrameStrobe[6] I
FrameStrobe[7] I
FrameStrobe[8] I
FrameStrobe[9] I
FrameStrobe_O[0] O
FrameStrobe_O[10] O
FrameStrobe_O[11] O
FrameStrobe_O[12] O
FrameStrobe_O[13] O
FrameStrobe_O[14] O
FrameStrobe_O[15] O
FrameStrobe_O[16] O
FrameStrobe_O[17] O
FrameStrobe_O[18] O
FrameStrobe_O[19] O
FrameStrobe_O[1] O
FrameStrobe_O[2] O
FrameStrobe_O[3] O
FrameStrobe_O[4] O
FrameStrobe_O[5] O
FrameStrobe_O[6] O
FrameStrobe_O[7] O
FrameStrobe_O[8] O
FrameStrobe_O[9] O
N1END[0] I
N1END[1] I
N1END[2] I
N1END[3] I
N2END[0] I
N2END[1] I
N2END[2] I
N2END[3] I
N2END[4] I
N2END[5] I
N2END[6] I
N2END[7] I
N2MID[0] I
N2MID[1] I
N2MID[2] I
N2MID[3] I
N2MID[4] I
N2MID[5] I
N2MID[6] I
N2MID[7] I
N4END[0] I
N4END[10] I
N4END[11] I
N4END[12] I
N4END[13] I
N4END[14] I
N4END[15] I
N4END[1] I
N4END[2] I
N4END[3] I
N4END[4] I
N4END[5] I
N4END[6] I
N4END[7] I
N4END[8] I
N4END[9] I
NN4END[0] I
NN4END[10] I
NN4END[11] I
NN4END[12] I
NN4END[13] I
NN4END[14] I
NN4END[15] I
NN4END[1] I
NN4END[2] I
NN4END[3] I
NN4END[4] I
NN4END[5] I
NN4END[6] I
NN4END[7] I
NN4END[8] I
NN4END[9] I
S1BEG[0] O
S1BEG[1] O
S1BEG[2] O
S1BEG[3] O
S2BEG[0] O
S2BEG[1] O
S2BEG[2] O
S2BEG[3] O
S2BEG[4] O
S2BEG[5] O
S2BEG[6] O
S2BEG[7] O
S2BEGb[0] O
S2BEGb[1] O
S2BEGb[2] O
S2BEGb[3] O
S2BEGb[4] O
S2BEGb[5] O
S2BEGb[6] O
S2BEGb[7] O
S4BEG[0] O
S4BEG[10] O
S4BEG[11] O
S4BEG[12] O
S4BEG[13] O
S4BEG[14] O
S4BEG[15] O
S4BEG[1] O
S4BEG[2] O
S4BEG[3] O
S4BEG[4] O
S4BEG[5] O
S4BEG[6] O
S4BEG[7] O
S4BEG[8] O
S4BEG[9] O
SS4BEG[0] O
SS4BEG[10] O
SS4BEG[11] O
SS4BEG[12] O
SS4BEG[13] O
SS4BEG[14] O
SS4BEG[15] O
SS4BEG[1] O
SS4BEG[2] O
SS4BEG[3] O
SS4BEG[4] O
SS4BEG[5] O
SS4BEG[6] O
SS4BEG[7] O
SS4BEG[8] O
SS4BEG[9] O
UserCLK I
UserCLKo O

*D_NET *1 0.012725
*CONN
*P FrameData[0] I
*I *928:A I *D sg13g2_buf_1
*CAP
1 FrameData[0] 0.00368024
2 *928:A 0
3 *1:11 0.000856884
4 *1:5 0.00453712
5 *1:5 *12:9 0
6 *1:5 *28:13 0
7 *1:5 *127:9 0
8 *1:5 *135:9 0.0021985
9 *1:11 *142:9 0
10 *1:11 *143:13 0
11 *1:11 *155:11 0.000271183
12 *1:11 *213:10 0
13 *1:11 *275:38 0.000686663
14 *1:11 *277:24 0.000494435
*RES
1 FrameData[0] *1:5 41.4652 
2 *1:5 *1:11 48.755 
3 *1:11 *928:A 20 
*END

*D_NET *2 0.0283749
*CONN
*P FrameData[10] I
*I *938:A I *D sg13g2_buf_1
*CAP
1 FrameData[10] 0.00101239
2 *938:A 0
3 *2:17 0
4 *2:13 0.00464357
5 *2:11 0.00464357
6 *2:9 0.00101239
7 *2:9 *3:9 0.00163838
8 *2:9 *31:11 0
9 *2:9 *32:9 0
10 *2:13 *3:13 0.0154246
11 *2:13 *225:14 0
*RES
1 FrameData[10] *2:9 32.2132 
2 *2:9 *2:11 20 
3 *2:11 *2:13 74.5102 
4 *2:13 *2:17 40 
5 *2:17 *938:A 20 
*END

*D_NET *3 0.0407605
*CONN
*P FrameData[11] I
*I *939:A I *D sg13g2_buf_1
*CAP
1 FrameData[11] 0.000946786
2 *939:A 0
3 *3:21 4.81685e-05
4 *3:13 0.00320284
5 *3:11 0.00315468
6 *3:9 0.000946786
7 *3:9 *4:9 0.0015407
8 *3:9 *31:11 0
9 *3:9 *32:9 0
10 *3:13 *4:13 0.0137137
11 *3:13 *225:14 0
12 *3:21 *81:19 4.87466e-05
13 *3:21 *252:14 4.8613e-05
14 *3:21 *307:12 4.63959e-05
15 *2:9 *3:9 0.00163838
16 *2:13 *3:13 0.0154246
*RES
1 FrameData[11] *3:9 31.8115 
2 *3:9 *3:11 20 
3 *3:11 *3:13 71.791 
4 *3:13 *3:21 40.5459 
5 *3:21 *939:A 20 
*END

*D_NET *4 0.0280937
*CONN
*P FrameData[12] I
*I *940:A I *D sg13g2_buf_1
*CAP
1 FrameData[12] 0.00104426
2 *940:A 0
3 *4:19 7.37841e-05
4 *4:13 0.00402564
5 *4:11 0.00395185
6 *4:9 0.00104426
7 *4:9 *5:9 0
8 *4:9 *9:11 0
9 *4:9 *31:11 0
10 *4:13 *5:25 0.00268442
11 *4:13 *225:14 0
12 *4:19 *227:24 1.50747e-05
13 *3:9 *4:9 0.0015407
14 *3:13 *4:13 0.0137137
*RES
1 FrameData[12] *4:9 31.4098 
2 *4:9 *4:11 20 
3 *4:11 *4:13 63.8806 
4 *4:13 *4:19 40.5356 
5 *4:19 *940:A 20 
*END

*D_NET *5 0.0213456
*CONN
*P FrameData[13] I
*I *941:A I *D sg13g2_buf_1
*CAP
1 FrameData[13] 0.00126305
2 *941:A 0.000560394
3 *5:25 0.00137268
4 *5:19 0.000859996
5 *5:13 0.00265461
6 *5:9 0.00386994
7 *941:A *944:A 0.000181839
8 *941:A *950:A 0.000101968
9 *941:A *8:15 0
10 *941:A *11:25 0.00023506
11 *941:A *15:21 0
12 *941:A *32:23 4.8613e-05
13 *941:A *221:8 0.00142729
14 *941:A *223:14 0
15 *941:A *227:18 0
16 *941:A *229:10 4.8613e-05
17 *941:A *236:8 0
18 *5:9 *6:11 0
19 *5:9 *30:11 0
20 *5:9 *32:9 0
21 *5:13 *957:A 0.00363433
22 *5:13 *6:19 0.00161782
23 *5:13 *10:17 0
24 *5:13 *15:9 0
25 *5:13 *17:13 0
26 *5:13 *233:10 4.8786e-05
27 *5:13 *258:10 0.000580996
28 *5:13 *259:10 0.000155228
29 *4:9 *5:9 0
30 *4:13 *5:25 0.00268442
*RES
1 FrameData[13] *5:9 33.2638 
2 *5:9 *5:13 49.767 
3 *5:13 *5:19 40.3193 
4 *5:19 *5:25 32.9986 
5 *5:25 *941:A 48.5799 
*END

*D_NET *6 0.0149225
*CONN
*P FrameData[14] I
*I *942:A I *D sg13g2_buf_1
*CAP
1 FrameData[14] 0.00201047
2 *942:A 0
3 *6:19 0.00125419
4 *6:11 0.00326466
5 *6:11 *7:5 0
6 *6:11 *26:23 0
7 *6:11 *30:21 0.00423527
8 *6:11 *107:9 0
9 *6:11 *108:11 0
10 *6:11 *268:16 0
11 *6:11 *273:14 0.000500937
12 *6:19 *10:17 0.0015646
13 *6:19 *15:9 0
14 *6:19 *17:13 0
15 *6:19 *214:10 0.000474554
16 *6:19 *223:10 0
17 *6:19 *226:10 0
18 *5:9 *6:11 0
19 *5:13 *6:19 0.00161782
*RES
1 FrameData[14] *6:11 46.5302 
2 *6:11 *6:19 38.4164 
3 *6:19 *942:A 20 
*END

*D_NET *7 0.00996778
*CONN
*P FrameData[15] I
*I *943:A I *D sg13g2_buf_1
*CAP
1 FrameData[15] 0.00395741
2 *943:A 0
3 *7:11 0.000696178
4 *7:5 0.00465359
5 *7:5 *8:5 0
6 *7:5 *30:21 0.0006606
7 *7:5 *245:8 0
8 *7:5 *273:14 0
9 *7:5 *274:14 0
10 *7:11 *15:15 0
11 *7:11 *285:10 0
12 *6:11 *7:5 0
*RES
1 FrameData[15] *7:5 39.982 
2 *7:5 *7:11 47.4572 
3 *7:11 *943:A 20 
*END

*D_NET *8 0.0113497
*CONN
*P FrameData[16] I
*I *944:A I *D sg13g2_buf_1
*CAP
1 FrameData[16] 0.00431897
2 *944:A 4.58606e-05
3 *8:15 0.000836678
4 *8:5 0.00510978
5 *944:A *223:14 0
6 *8:5 *9:11 0
7 *8:5 *31:13 0
8 *8:5 *274:14 0
9 *8:5 *285:14 0
10 *8:15 *11:25 0.000856535
11 *8:15 *223:14 0
12 *941:A *944:A 0.000181839
13 *941:A *8:15 0
14 *7:5 *8:5 0
*RES
1 FrameData[16] *8:5 44.1844 
2 *8:5 *8:15 49.5172 
3 *8:15 *944:A 20.8446 
*END

*D_NET *9 0.0306026
*CONN
*P FrameData[17] I
*I *945:A I *D sg13g2_buf_1
*CAP
1 FrameData[17] 0.000878085
2 *945:A 0
3 *9:27 0.000800125
4 *9:15 0.00272054
5 *9:11 0.0027985
6 *9:11 *10:13 0
7 *9:11 *22:11 0
8 *9:11 *31:13 0.000181572
9 *9:11 *32:9 0.00111604
10 *9:15 *19:5 0.0100681
11 *9:15 *32:13 0.0100679
12 *9:27 *32:13 0
13 *9:27 *221:8 0.000340669
14 *9:27 *227:18 0
15 *9:27 *229:18 0
16 *9:27 *233:14 0.00108307
17 *9:27 *236:8 0
18 *9:27 *263:10 4.8613e-05
19 *9:27 *264:26 0.000499329
20 *4:9 *9:11 0
21 *8:5 *9:11 0
*RES
1 FrameData[17] *9:11 49.8339 
2 *9:11 *9:15 47.3903 
3 *9:15 *9:27 49.4966 
4 *9:27 *945:A 20 
*END

*D_NET *10 0.0106692
*CONN
*P FrameData[18] I
*I *946:A I *D sg13g2_buf_1
*CAP
1 FrameData[18] 0.00210338
2 *946:A 0
3 *10:17 0.000990366
4 *10:13 0.00309375
5 *10:13 *1032:A 0
6 *10:13 *11:13 0.00291709
7 *10:13 *24:9 0
8 *10:13 *31:13 0
9 *10:17 *15:9 0
10 *5:13 *10:17 0
11 *6:19 *10:17 0.0015646
12 *9:11 *10:13 0
*RES
1 FrameData[18] *10:13 46.0152 
2 *10:13 *10:17 32.2158 
3 *10:17 *946:A 20 
*END

*D_NET *11 0.0139545
*CONN
*P FrameData[19] I
*I *947:A I *D sg13g2_buf_1
*CAP
1 FrameData[19] 0.00349733
2 *947:A 0
3 *11:25 0.000498467
4 *11:13 0.00399579
5 *11:13 *13:5 0
6 *11:13 *31:13 0
7 *11:13 *214:14 0.0016176
8 *11:13 *224:10 0
9 *11:13 *257:10 0.000101834
10 *11:25 *15:21 0
11 *11:25 *17:13 0.000234832
12 *941:A *11:25 0.00023506
13 *8:15 *11:25 0.000856535
14 *10:13 *11:13 0.00291709
*RES
1 FrameData[19] *11:13 45.4925 
2 *11:13 *11:25 46.7465 
3 *11:25 *947:A 20 
*END

*D_NET *12 0.0140567
*CONN
*P FrameData[1] I
*I *929:A I *D sg13g2_buf_1
*CAP
1 FrameData[1] 0.000328357
2 *929:A 0
3 *12:17 0.000705359
4 *12:11 0.00598438
5 *12:9 0.00560737
6 *12:9 *23:9 0
7 *12:9 *26:9 0
8 *12:11 *76:9 0
9 *12:11 *77:9 0
10 *12:11 *78:9 0
11 *12:11 *148:9 0
12 *12:11 *155:11 0
13 *12:17 S4BEG[12] 0.000530529
14 *12:17 S4BEG[13] 0.000274429
15 *12:17 *1121:A 0
16 *12:17 *218:10 0
17 *12:17 *219:28 0.000626303
18 *12:17 *295:24 0
19 *12:17 *304:16 0
20 *1:5 *12:9 0
*RES
1 FrameData[1] *12:9 43.6436 
2 *12:9 *12:11 57.7006 
3 *12:11 *12:17 47.8898 
4 *12:17 *929:A 20 
*END

*D_NET *13 0.00673817
*CONN
*P FrameData[20] I
*I *948:A I *D sg13g2_buf_1
*CAP
1 FrameData[20] 0.00309878
2 *948:A 0
3 *13:11 0.000270305
4 *13:5 0.00336908
5 *13:5 *14:7 0
6 *13:5 *15:9 0
7 *13:5 *224:8 0
8 *13:5 *224:10 0
9 *13:11 *223:10 0
10 *11:13 *13:5 0
*RES
1 FrameData[20] *13:5 34.0492 
2 *13:5 *13:11 43.1312 
3 *13:11 *948:A 20 
*END

*D_NET *14 0.00724929
*CONN
*P FrameData[21] I
*I *949:A I *D sg13g2_buf_1
*CAP
1 FrameData[21] 0.00292187
2 *949:A 0
3 *14:7 0.00292187
4 *14:7 *951:A 0
5 *14:7 *958:A 0.00140555
6 *14:7 *15:9 0
7 *14:7 *235:10 0
8 *13:5 *14:7 0
*RES
1 FrameData[21] *14:7 30.1352 
2 *14:7 *949:A 20 
*END

*D_NET *15 0.0142381
*CONN
*P FrameData[22] I
*I *950:A I *D sg13g2_buf_1
*CAP
1 FrameData[22] 0.00418319
2 *950:A 8.42499e-05
3 *15:21 0.00104436
4 *15:15 0.00115604
5 *15:9 0.00437911
6 *950:A *223:14 0
7 *950:A *244:8 4.8613e-05
8 *15:9 *951:A 0
9 *15:9 *957:A 0
10 *15:9 *958:A 0
11 *15:9 *963:A 0
12 *15:9 *16:17 0
13 *15:9 *17:13 0
14 *15:9 *214:10 0
15 *15:9 *223:10 0.000312261
16 *15:9 *223:14 0
17 *15:9 *224:8 0
18 *15:9 *224:10 0
19 *15:9 *226:10 4.8613e-05
20 *15:9 *235:10 4.8613e-05
21 *15:9 *274:10 0
22 *15:15 *231:10 0
23 *15:15 *260:10 7.90636e-05
24 *15:15 *285:10 0.000112502
25 *15:21 *17:13 0.000872165
26 *15:21 *18:5 0.000495517
27 *15:21 *25:11 0
28 *15:21 *32:13 0
29 *15:21 *32:23 0.000174158
30 *15:21 *227:18 0.000606058
31 *15:21 *296:14 0.000491596
32 *941:A *950:A 0.000101968
33 *941:A *15:21 0
34 *5:13 *15:9 0
35 *6:19 *15:9 0
36 *7:11 *15:15 0
37 *10:17 *15:9 0
38 *11:25 *15:21 0
39 *13:5 *15:9 0
40 *14:7 *15:9 0
*RES
1 FrameData[22] *15:9 41.3313 
2 *15:9 *15:15 41.6486 
3 *15:15 *15:21 31.639 
4 *15:21 *950:A 41.1433 
*END

*D_NET *16 0.00752118
*CONN
*P FrameData[23] I
*I *951:A I *D sg13g2_buf_1
*CAP
1 FrameData[23] 0.000921896
2 *951:A 0.00232231
3 *16:17 0.00324421
4 *951:A *958:A 0.00103277
5 *16:17 *957:A 0
6 *16:17 *17:13 0
7 *16:17 *220:10 0
8 *14:7 *951:A 0
9 *15:9 *951:A 0
10 *15:9 *16:17 0
*RES