*SPEF "ieee 1481-1999"
*DESIGN "N_term_single"
*DATE "08:49:30 Monday February 24, 2025"
*VENDOR "The OpenROAD Project"
*PROGRAM "OpenROAD"
*VERSION "87af90f72f3f9be1fdfa1d886f0dd8d8b8f34694"
*DESIGN_FLOW "NAME_SCOPE LOCAL" "PIN_CAP NONE"
*DIVIDER /
*DELIMITER :
*BUS_DELIMITER []
*T_UNIT 1 NS
*C_UNIT 1 PF
*R_UNIT 1 OHM
*L_UNIT 1 HENRY

*NAME_MAP
*1 Ci
*2 FrameData[0]
*3 FrameData[10]
*4 FrameData[11]
*5 FrameData[12]
*6 FrameData[13]
*7 FrameData[14]
*8 FrameData[15]
*9 FrameData[16]
*10 FrameData[17]
*11 FrameData[18]
*12 FrameData[19]
*13 FrameData[1]
*14 FrameData[20]
*15 FrameData[21]
*16 FrameData[22]
*17 FrameData[23]
*18 FrameData[24]
*19 FrameData[25]
*20 FrameData[26]
*21 FrameData[27]
*22 FrameData[28]
*23 FrameData[29]
*24 FrameData[2]
*25 FrameData[30]
*26 FrameData[31]
*27 FrameData[3]
*28 FrameData[4]
*29 FrameData[5]
*30 FrameData[6]
*31 FrameData[7]
*32 FrameData[8]
*33 FrameData[9]
*34 FrameData_O[0]
*35 FrameData_O[10]
*36 FrameData_O[11]
*37 FrameData_O[12]
*38 FrameData_O[13]
*39 FrameData_O[14]
*40 FrameData_O[15]
*41 FrameData_O[16]
*42 FrameData_O[17]
*43 FrameData_O[18]
*44 FrameData_O[19]
*45 FrameData_O[1]
*46 FrameData_O[20]
*47 FrameData_O[21]
*48 FrameData_O[22]
*49 FrameData_O[23]
*50 FrameData_O[24]
*51 FrameData_O[25]
*52 FrameData_O[26]
*53 FrameData_O[27]
*54 FrameData_O[28]
*55 FrameData_O[29]
*56 FrameData_O[2]
*57 FrameData_O[30]
*58 FrameData_O[31]
*59 FrameData_O[3]
*60 FrameData_O[4]
*61 FrameData_O[5]
*62 FrameData_O[6]
*63 FrameData_O[7]
*64 FrameData_O[8]
*65 FrameData_O[9]
*66 FrameStrobe[0]
*67 FrameStrobe[10]
*68 FrameStrobe[11]
*69 FrameStrobe[12]
*70 FrameStrobe[13]
*71 FrameStrobe[14]
*72 FrameStrobe[15]
*73 FrameStrobe[16]
*74 FrameStrobe[17]
*75 FrameStrobe[18]
*76 FrameStrobe[19]
*77 FrameStrobe[1]
*78 FrameStrobe[2]
*79 FrameStrobe[3]
*80 FrameStrobe[4]
*81 FrameStrobe[5]
*82 FrameStrobe[6]
*83 FrameStrobe[7]
*84 FrameStrobe[8]
*85 FrameStrobe[9]
*86 FrameStrobe_O[0]
*87 FrameStrobe_O[10]
*88 FrameStrobe_O[11]
*89 FrameStrobe_O[12]
*90 FrameStrobe_O[13]
*91 FrameStrobe_O[14]
*92 FrameStrobe_O[15]
*93 FrameStrobe_O[16]
*94 FrameStrobe_O[17]
*95 FrameStrobe_O[18]
*96 FrameStrobe_O[19]
*97 FrameStrobe_O[1]
*98 FrameStrobe_O[2]
*99 FrameStrobe_O[3]
*100 FrameStrobe_O[4]
*101 FrameStrobe_O[5]
*102 FrameStrobe_O[6]
*103 FrameStrobe_O[7]
*104 FrameStrobe_O[8]
*105 FrameStrobe_O[9]
*106 N1END[0]
*107 N1END[1]
*108 N1END[2]
*109 N1END[3]
*110 N2END[0]
*111 N2END[1]
*112 N2END[2]
*113 N2END[3]
*114 N2END[4]
*115 N2END[5]
*116 N2END[6]
*117 N2END[7]
*118 N2MID[0]
*119 N2MID[1]
*120 N2MID[2]
*121 N2MID[3]
*122 N2MID[4]
*123 N2MID[5]
*124 N2MID[6]
*125 N2MID[7]
*126 N4END[0]
*127 N4END[10]
*128 N4END[11]
*129 N4END[12]
*130 N4END[13]
*131 N4END[14]
*132 N4END[15]
*133 N4END[1]
*134 N4END[2]
*135 N4END[3]
*136 N4END[4]
*137 N4END[5]
*138 N4END[6]
*139 N4END[7]
*140 N4END[8]
*141 N4END[9]
*142 NN4END[0]
*143 NN4END[10]
*144 NN4END[11]
*145 NN4END[12]
*146 NN4END[13]
*147 NN4END[14]
*148 NN4END[15]
*149 NN4END[1]
*150 NN4END[2]
*151 NN4END[3]
*152 NN4END[4]
*153 NN4END[5]
*154 NN4END[6]
*155 NN4END[7]
*156 NN4END[8]
*157 NN4END[9]
*158 S1BEG[0]
*159 S1BEG[1]
*160 S1BEG[2]
*161 S1BEG[3]
*162 S2BEG[0]
*163 S2BEG[1]
*164 S2BEG[2]
*165 S2BEG[3]
*166 S2BEG[4]
*167 S2BEG[5]
*168 S2BEG[6]
*169 S2BEG[7]
*170 S2BEGb[0]
*171 S2BEGb[1]
*172 S2BEGb[2]
*173 S2BEGb[3]
*174 S2BEGb[4]
*175 S2BEGb[5]
*176 S2BEGb[6]
*177 S2BEGb[7]
*178 S4BEG[0]
*179 S4BEG[10]
*180 S4BEG[11]
*181 S4BEG[12]
*182 S4BEG[13]
*183 S4BEG[14]
*184 S4BEG[15]
*185 S4BEG[1]
*186 S4BEG[2]
*187 S4BEG[3]
*188 S4BEG[4]
*189 S4BEG[5]
*190 S4BEG[6]
*191 S4BEG[7]
*192 S4BEG[8]
*193 S4BEG[9]
*194 SS4BEG[0]
*195 SS4BEG[10]
*196 SS4BEG[11]
*197 SS4BEG[12]
*198 SS4BEG[13]
*199 SS4BEG[14]
*200 SS4BEG[15]
*201 SS4BEG[1]
*202 SS4BEG[2]
*203 SS4BEG[3]
*204 SS4BEG[4]
*205 SS4BEG[5]
*206 SS4BEG[6]
*207 SS4BEG[7]
*208 SS4BEG[8]
*209 SS4BEG[9]
*210 UserCLK
*211 UserCLKo
*214 net1
*215 net10
*216 net100
*217 net101
*218 net102
*219 net103
*220 net104
*221 net105
*222 net11
*223 net12
*224 net13
*225 net14
*226 net15
*227 net16
*228 net17
*229 net18
*230 net19
*231 net2
*232 net20
*233 net21
*234 net22
*235 net23
*236 net24
*237 net25
*238 net26
*239 net27
*240 net28
*241 net29
*242 net3
*243 net30
*244 net31
*245 net32
*246 net33
*247 net34
*248 net35
*249 net36
*250 net37
*251 net38
*252 net39
*253 net4
*254 net40
*255 net41
*256 net42
*257 net43
*258 net44
*259 net45
*260 net46
*261 net47
*262 net48
*263 net49
*264 net5
*265 net50
*266 net51
*267 net52
*268 net53
*269 net54
*270 net55
*271 net56
*272 net57
*273 net58
*274 net59
*275 net6
*276 net60
*277 net61
*278 net62
*279 net63
*280 net64
*281 net65
*282 net66
*283 net67
*284 net68
*285 net69
*286 net7
*287 net70
*288 net71
*289 net72
*290 net73
*291 net74
*292 net75
*293 net76
*294 net77
*295 net78
*296 net79
*297 net8
*298 net80
*299 net81
*300 net82
*301 net83
*302 net84
*303 net85
*304 net86
*305 net87
*306 net88
*307 net89
*308 net9
*309 net90
*310 net91
*311 net92
*312 net93
*313 net94
*314 net95
*315 net96
*316 net97
*317 net98
*318 net99
*319 ANTENNA_1
*320 ANTENNA_10
*321 ANTENNA_11
*322 ANTENNA_12
*323 ANTENNA_13
*324 ANTENNA_14
*325 ANTENNA_15
*326 ANTENNA_16
*327 ANTENNA_17
*328 ANTENNA_18
*329 ANTENNA_19
*330 ANTENNA_2
*331 ANTENNA_20
*332 ANTENNA_21
*333 ANTENNA_22
*334 ANTENNA_23
*335 ANTENNA_24
*336 ANTENNA_25
*337 ANTENNA_26
*338 ANTENNA_27
*339 ANTENNA_28
*340 ANTENNA_29
*341 ANTENNA_3
*342 ANTENNA_30
*343 ANTENNA_31
*344 ANTENNA_32
*345 ANTENNA_33
*346 ANTENNA_34
*347 ANTENNA_35
*348 ANTENNA_36
*349 ANTENNA_37
*350 ANTENNA_38
*351 ANTENNA_39
*352 ANTENNA_4
*353 ANTENNA_40
*354 ANTENNA_41
*355 ANTENNA_42
*356 ANTENNA_43
*357 ANTENNA_5
*358 ANTENNA_6
*359 ANTENNA_7
*360 ANTENNA_8
*361 ANTENNA_9
*362 FILLER_0_109
*363 FILLER_0_113
*364 FILLER_0_125
*365 FILLER_0_137
*366 FILLER_0_141
*367 FILLER_0_15
*368 FILLER_0_153
*369 FILLER_0_165
*370 FILLER_0_169
*371 FILLER_0_177
*372 FILLER_0_197
*373 FILLER_0_223
*374 FILLER_0_249
*375 FILLER_0_27
*376 FILLER_0_277
*377 FILLER_0_29
*378 FILLER_0_3
*379 FILLER_0_305
*380 FILLER_0_333
*381 FILLER_0_349
*382 FILLER_0_361
*383 FILLER_0_365
*384 FILLER_0_377
*385 FILLER_0_389
*386 FILLER_0_393
*387 FILLER_0_397
*388 FILLER_0_41
*389 FILLER_0_410
*390 FILLER_0_53
*391 FILLER_0_57
*392 FILLER_0_69
*393 FILLER_0_81
*394 FILLER_0_85
*395 FILLER_0_97
*396 FILLER_10_109
*397 FILLER_10_121
*398 FILLER_10_133
*399 FILLER_10_139
*400 FILLER_10_141
*401 FILLER_10_15
*402 FILLER_10_153
*403 FILLER_10_165
*404 FILLER_10_177
*405 FILLER_10_189
*406 FILLER_10_195
*407 FILLER_10_197
*408 FILLER_10_209
*409 FILLER_10_221
*410 FILLER_10_233
*411 FILLER_10_245
*412 FILLER_10_251
*413 FILLER_10_253
*414 FILLER_10_265
*415 FILLER_10_27
*416 FILLER_10_277
*417 FILLER_10_289
*418 FILLER_10_29
*419 FILLER_10_3
*420 FILLER_10_301
*421 FILLER_10_307
*422 FILLER_10_309
*423 FILLER_10_321
*424 FILLER_10_333
*425 FILLER_10_345
*426 FILLER_10_357
*427 FILLER_10_363
*428 FILLER_10_365
*429 FILLER_10_377
*430 FILLER_10_389
*431 FILLER_10_397
*432 FILLER_10_41
*433 FILLER_10_53
*434 FILLER_10_65
*435 FILLER_10_77
*436 FILLER_10_83
*437 FILLER_10_85
*438 FILLER_10_97
*439 FILLER_11_101
*440 FILLER_11_105
*441 FILLER_11_110
*442 FILLER_11_113
*443 FILLER_11_125
*444 FILLER_11_131
*445 FILLER_11_139
*446 FILLER_11_141
*447 FILLER_11_147
*448 FILLER_11_152
*449 FILLER_11_164
*450 FILLER_11_173
*451 FILLER_11_18
*452 FILLER_11_185
*453 FILLER_11_189
*454 FILLER_11_194
*455 FILLER_11_197
*456 FILLER_11_209
*457 FILLER_11_215
*458 FILLER_11_223
*459 FILLER_11_225
*460 FILLER_11_231
*461 FILLER_11_236
*462 FILLER_11_248
*463 FILLER_11_257
*464 FILLER_11_26
*465 FILLER_11_269
*466 FILLER_11_273
*467 FILLER_11_278
*468 FILLER_11_281
*469 FILLER_11_29
*470 FILLER_11_293
*471 FILLER_11_299
*472 FILLER_11_307
*473 FILLER_11_309
*474 FILLER_11_315
*475 FILLER_11_320
*476 FILLER_11_332
*477 FILLER_11_341
*478 FILLER_11_353
*479 FILLER_11_357
*480 FILLER_11_362
*481 FILLER_11_365
*482 FILLER_11_377
*483 FILLER_11_383
*484 FILLER_11_387
*485 FILLER_11_393
*486 FILLER_11_404
*487 FILLER_11_41
*488 FILLER_11_47
*489 FILLER_11_55
*490 FILLER_11_57
*491 FILLER_11_6
*492 FILLER_11_63
*493 FILLER_11_68
*494 FILLER_11_80
*495 FILLER_11_89
*496 FILLER_1_105
*497 FILLER_1_111
*498 FILLER_1_113
*499 FILLER_1_125
*500 FILLER_1_137
*501 FILLER_1_149
*502 FILLER_1_15
*503 FILLER_1_161
*504 FILLER_1_167
*505 FILLER_1_169
*506 FILLER_1_181
*507 FILLER_1_185
*508 FILLER_1_190
*509 FILLER_1_194
*510 FILLER_1_199
*511 FILLER_1_205
*512 FILLER_1_217
*513 FILLER_1_223
*514 FILLER_1_225
*515 FILLER_1_237
*516 FILLER_1_248
*517 FILLER_1_254
*518 FILLER_1_259
*519 FILLER_1_27
*520 FILLER_1_275
*521 FILLER_1_279
*522 FILLER_1_285
*523 FILLER_1_295
*524 FILLER_1_3
*525 FILLER_1_301
*526 FILLER_1_307
*527 FILLER_1_319
*528 FILLER_1_323
*529 FILLER_1_332
*530 FILLER_1_337
*531 FILLER_1_349
*532 FILLER_1_361
*533 FILLER_1_373
*534 FILLER_1_385
*535 FILLER_1_39
*536 FILLER_1_391
*537 FILLER_1_393
*538 FILLER_1_405
*539 FILLER_1_51
*540 FILLER_1_55
*541 FILLER_1_57
*542 FILLER_1_69
*543 FILLER_1_81
*544 FILLER_1_93
*545 FILLER_2_109
*546 FILLER_2_121
*547 FILLER_2_133
*548 FILLER_2_139
*549 FILLER_2_141
*550 FILLER_2_15
*551 FILLER_2_153
*552 FILLER_2_165
*553 FILLER_2_177
*554 FILLER_2_185
*555 FILLER_2_194
*556 FILLER_2_202
*557 FILLER_2_214
*558 FILLER_2_222
*559 FILLER_2_227
*560 FILLER_2_249
*561 FILLER_2_269
*562 FILLER_2_27
*563 FILLER_2_275
*564 FILLER_2_279
*565 FILLER_2_29
*566 FILLER_2_291
*567 FILLER_2_3
*568 FILLER_2_303
*569 FILLER_2_307
*570 FILLER_2_309
*571 FILLER_2_321
*572 FILLER_2_333
*573 FILLER_2_345
*574 FILLER_2_357
*575 FILLER_2_363
*576 FILLER_2_365
*577 FILLER_2_377
*578 FILLER_2_389
*579 FILLER_2_401
*580 FILLER_2_409
*581 FILLER_2_41
*582 FILLER_2_53
*583 FILLER_2_65
*584 FILLER_2_77
*585 FILLER_2_83
*586 FILLER_2_85
*587 FILLER_2_97
*588 FILLER_3_105
*589 FILLER_3_111
*590 FILLER_3_113
*591 FILLER_3_125
*592 FILLER_3_137
*593 FILLER_3_149
*594 FILLER_3_15
*595 FILLER_3_161
*596 FILLER_3_167
*597 FILLER_3_169
*598 FILLER_3_176
*599 FILLER_3_181
*600 FILLER_3_193
*601 FILLER_3_202
*602 FILLER_3_214
*603 FILLER_3_228
*604 FILLER_3_234
*605 FILLER_3_246
*606 FILLER_3_250
*607 FILLER_3_256
*608 FILLER_3_268
*609 FILLER_3_27
*610 FILLER_3_281
*611 FILLER_3_288
*612 FILLER_3_297
*613 FILLER_3_3
*614 FILLER_3_308
*615 FILLER_3_317
*616 FILLER_3_332
*617 FILLER_3_337
*618 FILLER_3_349
*619 FILLER_3_361
*620 FILLER_3_373
*621 FILLER_3_385
*622 FILLER_3_391
*623 FILLER_3_393
*624 FILLER_3_405
*625 FILLER_3_409
*626 FILLER_3_42
*627 FILLER_3_54
*628 FILLER_3_57
*629 FILLER_3_69
*630 FILLER_3_81
*631 FILLER_3_93
*632 FILLER_4_109
*633 FILLER_4_121
*634 FILLER_4_133
*635 FILLER_4_139
*636 FILLER_4_141
*637 FILLER_4_15
*638 FILLER_4_153
*639 FILLER_4_165
*640 FILLER_4_171
*641 FILLER_4_183
*642 FILLER_4_19
*643 FILLER_4_195
*644 FILLER_4_197
*645 FILLER_4_205
*646 FILLER_4_211
*647 FILLER_4_223
*648 FILLER_4_23
*649 FILLER_4_235
*650 FILLER_4_241
*651 FILLER_4_248
*652 FILLER_4_255
*653 FILLER_4_263
*654 FILLER_4_267
*655 FILLER_4_27
*656 FILLER_4_275
*657 FILLER_4_279
*658 FILLER_4_283
*659 FILLER_4_289
*660 FILLER_4_29
*661 FILLER_4_297
*662 FILLER_4_3
*663 FILLER_4_309
*664 FILLER_4_320
*665 FILLER_4_326
*666 FILLER_4_33
*667 FILLER_4_330
*668 FILLER_4_342
*669 FILLER_4_351
*670 FILLER_4_363
*671 FILLER_4_365
*672 FILLER_4_37
*673 FILLER_4_373
*674 FILLER_4_379
*675 FILLER_4_391
*676 FILLER_4_403
*677 FILLER_4_409
*678 FILLER_4_42
*679 FILLER_4_54
*680 FILLER_4_66
*681 FILLER_4_78
*682 FILLER_4_85
*683 FILLER_4_97
*684 FILLER_5_105
*685 FILLER_5_111
*686 FILLER_5_113
*687 FILLER_5_125
*688 FILLER_5_137
*689 FILLER_5_149
*690 FILLER_5_15
*691 FILLER_5_164
*692 FILLER_5_169
*693 FILLER_5_177
*694 FILLER_5_184
*695 FILLER_5_196
*696 FILLER_5_208
*697 FILLER_5_220
*698 FILLER_5_225
*699 FILLER_5_234
*700 FILLER_5_246
*701 FILLER_5_258
*702 FILLER_5_26
*703 FILLER_5_270
*704 FILLER_5_278
*705 FILLER_5_281
*706 FILLER_5_293
*707 FILLER_5_3
*708 FILLER_5_305
*709 FILLER_5_317
*710 FILLER_5_329
*711 FILLER_5_335
*712 FILLER_5_337
*713 FILLER_5_349
*714 FILLER_5_361
*715 FILLER_5_373
*716 FILLER_5_38
*717 FILLER_5_385
*718 FILLER_5_393
*719 FILLER_5_405
*720 FILLER_5_409
*721 FILLER_5_50
*722 FILLER_5_57
*723 FILLER_5_69
*724 FILLER_5_81
*725 FILLER_5_93
*726 FILLER_6_101
*727 FILLER_6_113
*728 FILLER_6_125
*729 FILLER_6_133
*730 FILLER_6_141
*731 FILLER_6_149
*732 FILLER_6_15
*733 FILLER_6_153
*734 FILLER_6_165
*735 FILLER_6_177
*736 FILLER_6_189
*737 FILLER_6_195
*738 FILLER_6_197
*739 FILLER_6_205
*740 FILLER_6_217
*741 FILLER_6_229
*742 FILLER_6_241
*743 FILLER_6_249
*744 FILLER_6_253
*745 FILLER_6_265
*746 FILLER_6_27
*747 FILLER_6_271
*748 FILLER_6_275
*749 FILLER_6_287
*750 FILLER_6_29
*751 FILLER_6_299
*752 FILLER_6_3
*753 FILLER_6_307
*754 FILLER_6_309
*755 FILLER_6_321
*756 FILLER_6_333
*757 FILLER_6_345
*758 FILLER_6_357
*759 FILLER_6_363
*760 FILLER_6_365
*761 FILLER_6_377
*762 FILLER_6_389
*763 FILLER_6_401
*764 FILLER_6_409
*765 FILLER_6_41
*766 FILLER_6_53
*767 FILLER_6_65
*768 FILLER_6_69
*769 FILLER_6_73
*770 FILLER_6_81
*771 FILLER_6_85
*772 FILLER_6_89
*773 FILLER_7_111
*774 FILLER_7_113
*775 FILLER_7_125
*776 FILLER_7_133
*777 FILLER_7_145
*778 FILLER_7_15
*779 FILLER_7_157
*780 FILLER_7_165
*781 FILLER_7_169
*782 FILLER_7_181
*783 FILLER_7_193
*784 FILLER_7_205
*785 FILLER_7_217
*786 FILLER_7_223
*787 FILLER_7_225
*788 FILLER_7_237
*789 FILLER_7_249
*790 FILLER_7_261
*791 FILLER_7_27
*792 FILLER_7_273
*793 FILLER_7_279
*794 FILLER_7_281
*795 FILLER_7_285
*796 FILLER_7_289
*797 FILLER_7_3
*798 FILLER_7_301
*799 FILLER_7_313
*800 FILLER_7_325
*801 FILLER_7_333
*802 FILLER_7_337
*803 FILLER_7_349
*804 FILLER_7_361
*805 FILLER_7_373
*806 FILLER_7_385
*807 FILLER_7_39
*808 FILLER_7_391
*809 FILLER_7_393
*810 FILLER_7_405
*811 FILLER_7_409
*812 FILLER_7_51
*813 FILLER_7_55
*814 FILLER_7_57
*815 FILLER_7_69
*816 FILLER_7_81
*817 FILLER_7_87
*818 FILLER_7_99
*819 FILLER_8_107
*820 FILLER_8_111
*821 FILLER_8_118
*822 FILLER_8_130
*823 FILLER_8_138
*824 FILLER_8_141
*825 FILLER_8_15
*826 FILLER_8_153
*827 FILLER_8_165
*828 FILLER_8_177
*829 FILLER_8_183
*830 FILLER_8_195
*831 FILLER_8_197
*832 FILLER_8_209
*833 FILLER_8_221
*834 FILLER_8_232
*835 FILLER_8_244
*836 FILLER_8_253
*837 FILLER_8_265
*838 FILLER_8_27
*839 FILLER_8_277
*840 FILLER_8_289
*841 FILLER_8_29
*842 FILLER_8_3
*843 FILLER_8_301
*844 FILLER_8_307
*845 FILLER_8_309
*846 FILLER_8_321
*847 FILLER_8_333
*848 FILLER_8_345
*849 FILLER_8_357
*850 FILLER_8_363
*851 FILLER_8_365
*852 FILLER_8_377
*853 FILLER_8_389
*854 FILLER_8_401
*855 FILLER_8_409
*856 FILLER_8_41
*857 FILLER_8_53
*858 FILLER_8_65
*859 FILLER_8_77
*860 FILLER_8_83
*861 FILLER_8_85
*862 FILLER_8_95
*863 FILLER_8_99
*864 FILLER_9_105
*865 FILLER_9_111
*866 FILLER_9_113
*867 FILLER_9_125
*868 FILLER_9_137
*869 FILLER_9_149
*870 FILLER_9_15
*871 FILLER_9_161
*872 FILLER_9_180
*873 FILLER_9_184
*874 FILLER_9_190
*875 FILLER_9_204
*876 FILLER_9_208
*877 FILLER_9_223
*878 FILLER_9_225
*879 FILLER_9_232
*880 FILLER_9_241
*881 FILLER_9_253
*882 FILLER_9_265
*883 FILLER_9_269
*884 FILLER_9_27
*885 FILLER_9_273
*886 FILLER_9_279
*887 FILLER_9_281
*888 FILLER_9_286
*889 FILLER_9_3
*890 FILLER_9_302
*891 FILLER_9_314
*892 FILLER_9_326
*893 FILLER_9_334
*894 FILLER_9_337
*895 FILLER_9_349
*896 FILLER_9_361
*897 FILLER_9_373
*898 FILLER_9_385
*899 FILLER_9_39
*900 FILLER_9_391
*901 FILLER_9_393
*902 FILLER_9_405
*903 FILLER_9_409
*904 FILLER_9_51
*905 FILLER_9_55
*906 FILLER_9_57
*907 FILLER_9_69
*908 FILLER_9_81
*909 FILLER_9_93
*910 PHY_EDGE_ROW_0_Left_12
*911 PHY_EDGE_ROW_0_Right_0
*912 PHY_EDGE_ROW_10_Left_22
*913 PHY_EDGE_ROW_10_Right_10
*914 PHY_EDGE_ROW_11_Left_23
*915 PHY_EDGE_ROW_11_Right_11
*916 PHY_EDGE_ROW_1_Left_13
*917 PHY_EDGE_ROW_1_Right_1
*918 PHY_EDGE_ROW_2_Left_14
*919 PHY_EDGE_ROW_2_Right_2
*920 PHY_EDGE_ROW_3_Left_15
*921 PHY_EDGE_ROW_3_Right_3
*922 PHY_EDGE_ROW_4_Left_16
*923 PHY_EDGE_ROW_4_Right_4
*924 PHY_EDGE_ROW_5_Left_17
*925 PHY_EDGE_ROW_5_Right_5
*926 PHY_EDGE_ROW_6_Left_18
*927 PHY_EDGE_ROW_6_Right_6
*928 PHY_EDGE_ROW_7_Left_19
*929 PHY_EDGE_ROW_7_Right_7
*930 PHY_EDGE_ROW_8_Left_20
*931 PHY_EDGE_ROW_8_Right_8
*932 PHY_EDGE_ROW_9_Left_21
*933 PHY_EDGE_ROW_9_Right_9
*934 TAP_TAPCELL_ROW_0_24
*935 TAP_TAPCELL_ROW_0_25
*936 TAP_TAPCELL_ROW_0_26
*937 TAP_TAPCELL_ROW_0_27
*938 TAP_TAPCELL_ROW_0_28
*939 TAP_TAPCELL_ROW_0_29
*940 TAP_TAPCELL_ROW_0_30
*941 TAP_TAPCELL_ROW_0_31
*942 TAP_TAPCELL_ROW_0_32
*943 TAP_TAPCELL_ROW_0_33
*944 TAP_TAPCELL_ROW_0_34
*945 TAP_TAPCELL_ROW_0_35
*946 TAP_TAPCELL_ROW_0_36
*947 TAP_TAPCELL_ROW_0_37
*948 TAP_TAPCELL_ROW_10_101
*949 TAP_TAPCELL_ROW_10_102
*950 TAP_TAPCELL_ROW_10_103
*951 TAP_TAPCELL_ROW_10_104
*952 TAP_TAPCELL_ROW_10_105
*953 TAP_TAPCELL_ROW_10_106
*954 TAP_TAPCELL_ROW_10_107
*955 TAP_TAPCELL_ROW_11_108
*956 TAP_TAPCELL_ROW_11_109
*957 TAP_TAPCELL_ROW_11_110
*958 TAP_TAPCELL_ROW_11_111
*959 TAP_TAPCELL_ROW_11_112
*960 TAP_TAPCELL_ROW_11_113
*961 TAP_TAPCELL_ROW_11_114
*962 TAP_TAPCELL_ROW_11_115
*963 TAP_TAPCELL_ROW_11_116
*964 TAP_TAPCELL_ROW_11_117
*965 TAP_TAPCELL_ROW_11_118
*966 TAP_TAPCELL_ROW_11_119
*967 TAP_TAPCELL_ROW_11_120
*968 TAP_TAPCELL_ROW_11_121
*969 TAP_TAPCELL_ROW_1_38
*970 TAP_TAPCELL_ROW_1_39
*971 TAP_TAPCELL_ROW_1_40
*972 TAP_TAPCELL_ROW_1_41
*973 TAP_TAPCELL_ROW_1_42
*974 TAP_TAPCELL_ROW_1_43
*975 TAP_TAPCELL_ROW_1_44
*976 TAP_TAPCELL_ROW_2_45
*977 TAP_TAPCELL_ROW_2_46
*978 TAP_TAPCELL_ROW_2_47
*979 TAP_TAPCELL_ROW_2_48
*980 TAP_TAPCELL_ROW_2_49
*981 TAP_TAPCELL_ROW_2_50
*982 TAP_TAPCELL_ROW_2_51
*983 TAP_TAPCELL_ROW_3_52
*984 TAP_TAPCELL_ROW_3_53
*985 TAP_TAPCELL_ROW_3_54
*986 TAP_TAPCELL_ROW_3_55
*987 TAP_TAPCELL_ROW_3_56
*988 TAP_TAPCELL_ROW_3_57
*989 TAP_TAPCELL_ROW_3_58
*990 TAP_TAPCELL_ROW_4_59
*991 TAP_TAPCELL_ROW_4_60
*992 TAP_TAPCELL_ROW_4_61
*993 TAP_TAPCELL_ROW_4_62
*994 TAP_TAPCELL_ROW_4_63
*995 TAP_TAPCELL_ROW_4_64
*996 TAP_TAPCELL_ROW_4_65
*997 TAP_TAPCELL_ROW_5_66
*998 TAP_TAPCELL_ROW_5_67
*999 TAP_TAPCELL_ROW_5_68
*1000 TAP_TAPCELL_ROW_5_69
*1001 TAP_TAPCELL_ROW_5_70
*1002 TAP_TAPCELL_ROW_5_71
*1003 TAP_TAPCELL_ROW_5_72
*1004 TAP_TAPCELL_ROW_6_73
*1005 TAP_TAPCELL_ROW_6_74
*1006 TAP_TAPCELL_ROW_6_75
*1007 TAP_TAPCELL_ROW_6_76
*1008 TAP_TAPCELL_ROW_6_77
*1009 TAP_TAPCELL_ROW_6_78
*1010 TAP_TAPCELL_ROW_6_79
*1011 TAP_TAPCELL_ROW_7_80
*1012 TAP_TAPCELL_ROW_7_81
*1013 TAP_TAPCELL_ROW_7_82
*1014 TAP_TAPCELL_ROW_7_83
*1015 TAP_TAPCELL_ROW_7_84
*1016 TAP_TAPCELL_ROW_7_85
*1017 TAP_TAPCELL_ROW_7_86
*1018 TAP_TAPCELL_ROW_8_87
*1019 TAP_TAPCELL_ROW_8_88
*1020 TAP_TAPCELL_ROW_8_89
*1021 TAP_TAPCELL_ROW_8_90
*1022 TAP_TAPCELL_ROW_8_91
*1023 TAP_TAPCELL_ROW_8_92
*1024 TAP_TAPCELL_ROW_8_93
*1025 TAP_TAPCELL_ROW_9_100
*1026 TAP_TAPCELL_ROW_9_94
*1027 TAP_TAPCELL_ROW_9_95
*1028 TAP_TAPCELL_ROW_9_96
*1029 TAP_TAPCELL_ROW_9_97
*1030 TAP_TAPCELL_ROW_9_98
*1031 TAP_TAPCELL_ROW_9_99
*1032 _000_
*1033 _001_
*1034 _002_
*1035 _003_
*1036 _004_
*1037 _005_
*1038 _006_
*1039 _007_
*1040 _008_
*1041 _009_
*1042 _010_
*1043 _011_
*1044 _012_
*1045 _013_
*1046 _014_
*1047 _015_
*1048 _016_
*1049 _017_
*1050 _018_
*1051 _019_
*1052 _020_
*1053 _021_
*1054 _022_
*1055 _023_
*1056 _024_
*1057 _025_
*1058 _026_
*1059 _027_
*1060 _028_
*1061 _029_
*1062 _030_
*1063 _031_
*1064 _032_
*1065 _033_
*1066 _034_
*1067 _035_
*1068 _036_
*1069 _037_
*1070 _038_
*1071 _039_
*1072 _040_
*1073 _041_
*1074 _042_
*1075 _043_
*1076 _044_
*1077 _045_
*1078 _046_
*1079 _047_
*1080 _048_
*1081 _049_
*1082 _050_
*1083 _051_
*1084 _052_
*1085 _053_
*1086 _054_
*1087 _055_
*1088 _056_
*1089 _057_
*1090 _058_
*1091 _059_
*1092 _060_
*1093 _061_
*1094 _062_
*1095 _063_
*1096 _064_
*1097 _065_
*1098 _066_
*1099 _067_
*1100 _068_
*1101 _069_
*1102 _070_
*1103 _071_
*1104 _072_
*1105 _073_
*1106 _074_
*1107 _075_
*1108 _076_
*1109 _077_
*1110 _078_
*1111 _079_
*1112 _080_
*1113 _081_
*1114 _082_
*1115 _083_
*1116 _084_
*1117 _085_
*1118 _086_
*1119 _087_
*1120 _088_
*1121 _089_
*1122 _090_
*1123 _091_
*1124 _092_
*1125 _093_
*1126 _094_
*1127 _095_
*1128 _096_
*1129 _097_
*1130 _098_
*1131 _099_
*1132 _100_
*1133 _101_
*1134 _102_
*1135 _103_
*1136 _104_
*1137 output1
*1138 output10
*1139 output100
*1140 output101
*1141 output102
*1142 output103
*1143 output104
*1144 output105
*1145 output11
*1146 output12
*1147 output13
*1148 output14
*1149 output15
*1150 output16
*1151 output17
*1152 output18
*1153 output19
*1154 output2
*1155 output20
*1156 output21
*1157 output22
*1158 output23
*1159 output24
*1160 output25
*1161 output26
*1162 output27
*1163 output28
*1164 output29
*1165 output3
*1166 output30
*1167 output31
*1168 output32
*1169 output33
*1170 output34
*1171 output35
*1172 output36
*1173 output37
*1174 output38
*1175 output39
*1176 output4
*1177 output40
*1178 output41
*1179 output42
*1180 output43
*1181 output44
*1182 output45
*1183 output46
*1184 output47
*1185 output48
*1186 output49
*1187 output5
*1188 output50
*1189 output51
*1190 output52
*1191 output53
*1192 output54
*1193 output55
*1194 output56
*1195 output57
*1196 output58
*1197 output59
*1198 output6
*1199 output60
*1200 output61
*1201 output62
*1202 output63
*1203 output64
*1204 output65
*1205 output66
*1206 output67
*1207 output68
*1208 output69
*1209 output7
*1210 output70
*1211 output71
*1212 output72
*1213 output73
*1214 output74
*1215 output75
*1216 output76
*1217 output77
*1218 output78
*1219 output79
*1220 output8
*1221 output80
*1222 output81
*1223 output82
*1224 output83
*1225 output84
*1226 output85
*1227 output86
*1228 output87
*1229 output88
*1230 output89
*1231 output9
*1232 output90
*1233 output91
*1234 output92
*1235 output93
*1236 output94
*1237 output95
*1238 output96
*1239 output97
*1240 output98
*1241 output99

*PORTS
Ci I
FrameData[0] I
FrameData[10] I
FrameData[11] I
FrameData[12] I
FrameData[13] I
FrameData[14] I
FrameData[15] I
FrameData[16] I
FrameData[17] I
FrameData[18] I
FrameData[19] I
FrameData[1] I
FrameData[20] I
FrameData[21] I
FrameData[22] I
FrameData[23] I
FrameData[24] I
FrameData[25] I
FrameData[26] I
FrameData[27] I
FrameData[28] I
FrameData[29] I
FrameData[2] I
FrameData[30] I
FrameData[31] I
FrameData[3] I
FrameData[4] I
FrameData[5] I
FrameData[6] I
FrameData[7] I
FrameData[8] I
FrameData[9] I
FrameData_O[0] O
FrameData_O[10] O
FrameData_O[11] O
FrameData_O[12] O
FrameData_O[13] O
FrameData_O[14] O
FrameData_O[15] O
FrameData_O[16] O
FrameData_O[17] O
FrameData_O[18] O
FrameData_O[19] O
FrameData_O[1] O
FrameData_O[20] O
FrameData_O[21] O
FrameData_O[22] O
FrameData_O[23] O
FrameData_O[24] O
FrameData_O[25] O
FrameData_O[26] O
FrameData_O[27] O
FrameData_O[28] O
FrameData_O[29] O
FrameData_O[2] O
FrameData_O[30] O
FrameData_O[31] O
FrameData_O[3] O
FrameData_O[4] O
FrameData_O[5] O
FrameData_O[6] O
FrameData_O[7] O
FrameData_O[8] O
FrameData_O[9] O
FrameStrobe[0] I
FrameStrobe[10] I
FrameStrobe[11] I
FrameStrobe[12] I
FrameStrobe[13] I
FrameStrobe[14] I
FrameStrobe[15] I
FrameStrobe[16] I
FrameStrobe[17] I
FrameStrobe[18] I
FrameStrobe[19] I
FrameStrobe[1] I
FrameStrobe[2] I
FrameStrobe[3] I
FrameStrobe[4] I
FrameStrobe[5] I
FrameStrobe[6] I
FrameStrobe[7] I
FrameStrobe[8] I
FrameStrobe[9] I
FrameStrobe_O[0] O
FrameStrobe_O[10] O
FrameStrobe_O[11] O
FrameStrobe_O[12] O
FrameStrobe_O[13] O
FrameStrobe_O[14] O
FrameStrobe_O[15] O
FrameStrobe_O[16] O
FrameStrobe_O[17] O
FrameStrobe_O[18] O
FrameStrobe_O[19] O
FrameStrobe_O[1] O
FrameStrobe_O[2] O
FrameStrobe_O[3] O
FrameStrobe_O[4] O
FrameStrobe_O[5] O
FrameStrobe_O[6] O
FrameStrobe_O[7] O
FrameStrobe_O[8] O
FrameStrobe_O[9] O
N1END[0] I
N1END[1] I
N1END[2] I
N1END[3] I
N2END[0] I
N2END[1] I
N2END[2] I
N2END[3] I
N2END[4] I
N2END[5] I
N2END[6] I
N2END[7] I
N2MID[0] I
N2MID[1] I
N2MID[2] I
N2MID[3] I
N2MID[4] I
N2MID[5] I
N2MID[6] I
N2MID[7] I
N4END[0] I
N4END[10] I
N4END[11] I
N4END[12] I
N4END[13] I
N4END[14] I
N4END[15] I
N4END[1] I
N4END[2] I
N4END[3] I
N4END[4] I
N4END[5] I
N4END[6] I
N4END[7] I
N4END[8] I
N4END[9] I
NN4END[0] I
NN4END[10] I
NN4END[11] I
NN4END[12] I
NN4END[13] I
NN4END[14] I
NN4END[15] I
NN4END[1] I
NN4END[2] I
NN4END[3] I
NN4END[4] I
NN4END[5] I
NN4END[6] I
NN4END[7] I
NN4END[8] I
NN4END[9] I
S1BEG[0] O
S1BEG[1] O
S1BEG[2] O
S1BEG[3] O
S2BEG[0] O
S2BEG[1] O
S2BEG[2] O
S2BEG[3] O
S2BEG[4] O
S2BEG[5] O
S2BEG[6] O
S2BEG[7] O
S2BEGb[0] O
S2BEGb[1] O
S2BEGb[2] O
S2BEGb[3] O
S2BEGb[4] O
S2BEGb[5] O
S2BEGb[6] O
S2BEGb[7] O
S4BEG[0] O
S4BEG[10] O
S4BEG[11] O
S4BEG[12] O
S4BEG[13] O
S4BEG[14] O
S4BEG[15] O
S4BEG[1] O
S4BEG[2] O
S4BEG[3] O
S4BEG[4] O
S4BEG[5] O
S4BEG[6] O
S4BEG[7] O
S4BEG[8] O
S4BEG[9] O
SS4BEG[0] O
SS4BEG[10] O
SS4BEG[11] O
SS4BEG[12] O
SS4BEG[13] O
SS4BEG[14] O
SS4BEG[15] O
SS4BEG[1] O
SS4BEG[2] O
SS4BEG[3] O
SS4BEG[4] O
SS4BEG[5] O
SS4BEG[6] O
SS4BEG[7] O
SS4BEG[8] O
SS4BEG[9] O
UserCLK I
UserCLKo O

*D_NET *2 0.0208831
*CONN
*P FrameData[0] I
*I *1032:A I *D sky130_fd_sc_hd__buf_1
*CAP
1 FrameData[0] 0.0035064
2 *1032:A 0.000943397
3 *2:19 0.00444979
4 *1032:A *1045:A 8.49205e-05
5 *1032:A *1116:A 0.0024116
6 *1032:A *1204:A 0
7 *1032:A *1205:A 0.000211205
8 *1032:A *3:11 0.000101386
9 *1032:A *6:19 1.23268e-05
10 *1032:A *28:25 0.00431793
11 *1032:A *134:15 0.000115146
12 *1032:A *293:24 2.26018e-05
13 *1032:A *294:24 0.000785037
14 *2:19 *330:DIODE 0.000107425
15 *2:19 *1090:A 0.000530907
16 *2:19 *1091:A 0.00121009
17 *2:19 *1110:A 0.00025653
18 *2:19 *1112:A 8.26546e-05
19 *2:19 *1113:A 0.000116381
20 *2:19 *1114:A 3.0807e-05
21 *2:19 *1199:A 0.000164542
22 *2:19 *13:11 0.00132649
23 *2:19 *268:12 3.81908e-06
24 *2:19 *273:12 9.17261e-05
*RES
1 FrameData[0] *2:19 47.8136 
2 *2:19 *1032:A 48.035 
*END

*D_NET *3 0.0228481
*CONN
*P FrameData[10] I
*I *319:DIODE I *D sky130_fd_sc_hd__diode_2
*I *1042:A I *D sky130_fd_sc_hd__buf_1
*CAP
1 FrameData[10] 0.00441663
2 *319:DIODE 2.90958e-05
3 *1042:A 0
4 *3:11 0.00444572
5 *319:DIODE *242:14 0.000160635
6 *319:DIODE *306:18 0.000160635
7 *3:11 *330:DIODE 0.000678937
8 *3:11 *341:DIODE 0.0001563
9 *3:11 *1121:A 0.00114974
10 *3:11 *1198:A 0
11 *3:11 *6:19 0.00295199
12 *3:11 *28:25 0.000101392
13 *3:11 *33:25 0.00829332
14 *3:11 *152:23 5.57195e-05
15 *3:11 *291:22 0.000146595
16 *1032:A *3:11 0.000101386
*RES
1 FrameData[10] *3:11 19.4802 
2 *3:11 *1042:A 1.6 
3 *3:11 *319:DIODE 3.085 
*END

*D_NET *4 0.0226697
*CONN
*P FrameData[11] I
*I *1043:A I *D sky130_fd_sc_hd__buf_1
*I *330:DIODE I *D sky130_fd_sc_hd__diode_2
*CAP
1 FrameData[11] 0.00416037
2 *1043:A 2.11983e-05
3 *330:DIODE 0.00418157
4 *330:DIODE *341:DIODE 0.00367174
5 *330:DIODE *358:DIODE 9.01191e-06
6 *330:DIODE *1086:A 0
7 *330:DIODE *1087:A 6.11965e-05
8 *330:DIODE *1198:A 0.00173514
9 *330:DIODE *1211:A 0.000101778
10 *330:DIODE *1213:A 0.000132266
11 *330:DIODE *6:19 0.000428972
12 *330:DIODE *7:9 0.00690256
13 *330:DIODE *11:17 0.000144302
14 *330:DIODE *253:16 3.23981e-05
15 *330:DIODE *269:12 4.84727e-05
16 *330:DIODE *291:22 0.000204061
17 *1043:A *306:18 4.82919e-05
18 *2:19 *330:DIODE 0.000107425
19 *3:11 *330:DIODE 0.000678937
*RES
1 FrameData[11] *330:DIODE 23.9136 
2 *330:DIODE *1043:A 3.65 
*END

*D_NET *5 0.0203799
*CONN
*P FrameData[12] I
*I *1044:A I *D sky130_fd_sc_hd__buf_1
*I *341:DIODE I *D sky130_fd_sc_hd__diode_2
*CAP
1 FrameData[12] 0.00362884
2 *1044:A 1.72301e-05
3 *341:DIODE 0.00364607
4 *341:DIODE *6:19 0.00869938
5 *341:DIODE *7:9 7.87142e-05
6 *341:DIODE *268:16 0.000119831
7 *341:DIODE *292:20 0.000162721
8 *341:DIODE *306:18 0.000149148
9 *1044:A *306:18 4.99619e-05
10 *330:DIODE *341:DIODE 0.00367174
11 *3:11 *341:DIODE 0.0001563
*RES
1 FrameData[12] *341:DIODE 18.7928 
2 *341:DIODE *1044:A 3.65 
*END

*D_NET *6 0.0211486
*CONN
*P FrameData[13] I
*I *1045:A I *D sky130_fd_sc_hd__buf_1
*I *352:DIODE I *D sky130_fd_sc_hd__diode_2
*CAP
1 FrameData[13] 0.00395213
2 *1045:A 2.87933e-05
3 *352:DIODE 0
4 *6:19 0.00398092
5 *1045:A *28:25 1.91597e-05
6 *1045:A *294:24 0.000122325
7 *6:19 *1204:A 7.56609e-05
8 *6:19 *1205:A 4.20896e-05
9 *6:19 *7:9 0.000427302
10 *6:19 *269:14 0.000101386
11 *6:19 *270:16 0.000221223
12 *330:DIODE *6:19 0.000428972
13 *341:DIODE *6:19 0.00869938
14 *1032:A *1045:A 8.49205e-05
15 *1032:A *6:19 1.23268e-05
16 *3:11 *6:19 0.00295199
*RES
1 FrameData[13] *6:19 20.58 
2 *6:19 *352:DIODE 1.6 
3 *6:19 *1045:A 2.74 
*END

*D_NET *7 0.0178187
*CONN
*P FrameData[14] I
*I *357:DIODE I *D sky130_fd_sc_hd__diode_2
*I *1046:A I *D sky130_fd_sc_hd__buf_1
*CAP
1 FrameData[14] 0.0032725
2 *357:DIODE 0.000122661
3 *1046:A 6.32988e-05
4 *7:9 0.00345846
5 *357:DIODE *8:13 0.000118081
6 *357:DIODE *27:27 2.05056e-05
7 *1046:A *1197:A 4.82863e-05
8 *1046:A *1199:A 6.69719e-05
9 *1046:A *1201:A 0
10 *1046:A *27:27 4.66108e-05
11 *7:9 *358:DIODE 0.00183684
12 *7:9 *1112:A 0.000613298
13 *7:9 *1199:A 0.0004765
14 *7:9 *1201:A 0
15 *7:9 *8:11 0.0001419
16 *7:9 *268:12 0.00012424
17 *330:DIODE *7:9 0.00690256
18 *341:DIODE *7:9 7.87142e-05
19 *6:19 *7:9 0.000427302
*RES
1 FrameData[14] *7:9 18.4721 
2 *7:9 *1046:A 4.92 
3 *7:9 *357:DIODE 5.085 
*END

*D_NET *8 0.013957
*CONN
*P FrameData[15] I
*I *1047:A I *D sky130_fd_sc_hd__buf_1
*CAP
1 FrameData[15] 0.000487131
2 *1047:A 6.57605e-05
3 *8:13 0.00472606
4 *8:11 0.00514744
5 *1047:A *1198:A 0.000151873
6 *1047:A *1209:A 3.07373e-05
7 *1047:A *293:24 9.0444e-05
8 *8:11 *358:DIODE 0.0001419
9 *8:13 *338:DIODE 0.000261924
10 *8:13 *1196:A 0.00143758
11 *8:13 *1197:A 0.000206528
12 *8:13 *27:27 0.000949635
13 *357:DIODE *8:13 0.000118081
14 *7:9 *8:11 0.0001419
*RES
1 FrameData[15] *8:11 9.97723 
2 *8:11 *8:13 70.83 
3 *8:13 *1047:A 7.49 
*END

*D_NET *9 0.0176143
*CONN
*P FrameData[16] I
*I *1048:A I *D sky130_fd_sc_hd__buf_1
*I *358:DIODE I *D sky130_fd_sc_hd__diode_2
*CAP
1 FrameData[16] 0.00439539
2 *1048:A 2.06702e-05
3 *358:DIODE 0.00441606
4 *358:DIODE *1049:A 0.00263352
5 *358:DIODE *1092:A 0.00012905
6 *358:DIODE *1093:A 0.000119028
7 *358:DIODE *1112:A 0.00152454
8 *358:DIODE *1198:A 3.61362e-05
9 *358:DIODE *1199:A 0.00111571
10 *358:DIODE *1200:A 0.000350308
11 *358:DIODE *1209:A 9.70131e-05
12 *358:DIODE *277:18 0.000251983
13 *358:DIODE *297:10 0