* NGSPICE file created from S_EF_ADC12.ext - technology: sky130A

* Black-box entry subcircuit for sky130_fd_sc_hd__fill_2 abstract view
.subckt sky130_fd_sc_hd__fill_2 VGND VNB VPB VPWR
.ends

* Black-box entry subcircuit for sky130_fd_sc_hd__dfxtp_2 abstract view
.subckt sky130_fd_sc_hd__dfxtp_2 CLK D VGND VNB VPB VPWR Q
.ends

* Black-box entry subcircuit for sky130_fd_sc_hd__clkbuf_1 abstract view
.subckt sky130_fd_sc_hd__clkbuf_1 A VGND VNB VPB VPWR X
.ends

* Black-box entry subcircuit for sky130_fd_sc_hd__buf_1 abstract view
.subckt sky130_fd_sc_hd__buf_1 A VGND VNB VPB VPWR X
.ends

* Black-box entry subcircuit for sky130_fd_sc_hd__tapvpwrvgnd_1 abstract view
.subckt sky130_fd_sc_hd__tapvpwrvgnd_1 VGND VPWR
.ends

* Black-box entry subcircuit for sky130_fd_sc_hd__decap_3 abstract view
.subckt sky130_fd_sc_hd__decap_3 VGND VNB VPB VPWR
.ends

* Black-box entry subcircuit for sky130_fd_sc_hd__dlxtp_1 abstract view
.subckt sky130_fd_sc_hd__dlxtp_1 D GATE VGND VNB VPB VPWR Q
.ends

* Black-box entry subcircuit for sky130_fd_sc_hd__and3_1 abstract view
.subckt sky130_fd_sc_hd__and3_1 A B C VGND VNB VPB VPWR X
.ends

* Black-box entry subcircuit for sky130_fd_sc_hd__and2_1 abstract view
.subckt sky130_fd_sc_hd__and2_1 A B VGND VNB VPB VPWR X
.ends

* Black-box entry subcircuit for sky130_fd_sc_hd__clkbuf_2 abstract view
.subckt sky130_fd_sc_hd__clkbuf_2 A VGND VNB VPB VPWR X
.ends

* Black-box entry subcircuit for sky130_fd_sc_hd__decap_4 abstract view
.subckt sky130_fd_sc_hd__decap_4 VGND VNB VPB VPWR
.ends

* Black-box entry subcircuit for sky130_fd_sc_hd__fill_1 abstract view
.subckt sky130_fd_sc_hd__fill_1 VGND VNB VPB VPWR
.ends

* Black-box entry subcircuit for sky130_fd_sc_hd__mux4_1 abstract view
.subckt sky130_fd_sc_hd__mux4_1 A0 A1 A2 A3 S0 S1 VGND VNB VPB VPWR X
.ends

* Black-box entry subcircuit for sky130_fd_sc_hd__diode_2 abstract view
.subckt sky130_fd_sc_hd__diode_2 DIODE VGND VNB VPB VPWR
.ends

* Black-box entry subcircuit for sky130_fd_sc_hd__buf_2 abstract view
.subckt sky130_fd_sc_hd__buf_2 A VGND VNB VPB VPWR X
.ends

* Black-box entry subcircuit for sky130_fd_sc_hd__dfxtp_1 abstract view
.subckt sky130_fd_sc_hd__dfxtp_1 CLK D VGND VNB VPB VPWR Q
.ends

* Black-box entry subcircuit for sky130_fd_sc_hd__o22a_1 abstract view
.subckt sky130_fd_sc_hd__o22a_1 A1 A2 B1 B2 VGND VNB VPB VPWR X
.ends

* Black-box entry subcircuit for sky130_fd_sc_hd__mux2_1 abstract view
.subckt sky130_fd_sc_hd__mux2_1 A0 A1 S VGND VNB VPB VPWR X
.ends

* Black-box entry subcircuit for sky130_ef_sc_hd__decap_12 abstract view
.subckt sky130_ef_sc_hd__decap_12 VPWR VGND VPB VNB
.ends

* Black-box entry subcircuit for sky130_fd_sc_hd__clkbuf_16 abstract view
.subckt sky130_fd_sc_hd__clkbuf_16 A VGND VNB VPB VPWR X
.ends

* Black-box entry subcircuit for sky130_fd_sc_hd__o211a_1 abstract view
.subckt sky130_fd_sc_hd__o211a_1 A1 A2 B1 C1 VGND VNB VPB VPWR X
.ends

* Black-box entry subcircuit for sky130_fd_sc_hd__dlygate4sd3_1 abstract view
.subckt sky130_fd_sc_hd__dlygate4sd3_1 A VGND VNB VPB VPWR X
.ends

* Black-box entry subcircuit for sky130_fd_sc_hd__decap_6 abstract view
.subckt sky130_fd_sc_hd__decap_6 VGND VNB VPB VPWR
.ends

* Black-box entry subcircuit for sky130_fd_sc_hd__decap_8 abstract view
.subckt sky130_fd_sc_hd__decap_8 VGND VNB VPB VPWR
.ends

* Black-box entry subcircuit for sky130_fd_sc_hd__nand2_1 abstract view
.subckt sky130_fd_sc_hd__nand2_1 A B VGND VNB VPB VPWR Y
.ends

* Black-box entry subcircuit for sky130_fd_sc_hd__bufinv_16 abstract view
.subckt sky130_fd_sc_hd__bufinv_16 A VGND VNB VPB VPWR Y
.ends

* Black-box entry subcircuit for sky130_fd_sc_hd__clkinv_4 abstract view
.subckt sky130_fd_sc_hd__clkinv_4 A VGND VNB VPB VPWR Y
.ends

* Black-box entry subcircuit for sky130_fd_sc_hd__nand2b_1 abstract view
.subckt sky130_fd_sc_hd__nand2b_1 A_N B VGND VNB VPB VPWR Y
.ends

* Black-box entry subcircuit for sky130_fd_sc_hd__or2_1 abstract view
.subckt sky130_fd_sc_hd__or2_1 A B VGND VNB VPB VPWR X
.ends

* Black-box entry subcircuit for sky130_fd_sc_hd__o21a_1 abstract view
.subckt sky130_fd_sc_hd__o21a_1 A1 A2 B1 VGND VNB VPB VPWR X
.ends

* Black-box entry subcircuit for sky130_fd_sc_hd__nor2_1 abstract view
.subckt sky130_fd_sc_hd__nor2_1 A B VGND VNB VPB VPWR Y
.ends

* Black-box entry subcircuit for sky130_fd_sc_hd__o211ai_1 abstract view
.subckt sky130_fd_sc_hd__o211ai_1 A1 A2 B1 C1 VGND VNB VPB VPWR Y
.ends

* Black-box entry subcircuit for sky130_fd_sc_hd__a21bo_1 abstract view
.subckt sky130_fd_sc_hd__a21bo_1 A1 A2 B1_N VGND VNB VPB VPWR X
.ends

* Black-box entry subcircuit for sky130_fd_sc_hd__and2b_1 abstract view
.subckt sky130_fd_sc_hd__and2b_1 A_N B VGND VNB VPB VPWR X
.ends

* Black-box entry subcircuit for sky130_fd_sc_hd__nand3_1 abstract view
.subckt sky130_fd_sc_hd__nand3_1 A B C VGND VNB VPB VPWR Y
.ends

* Black-box entry subcircuit for sky130_fd_sc_hd__and4_1 abstract view
.subckt sky130_fd_sc_hd__and4_1 A B C D VGND VNB VPB VPWR X
.ends

* Black-box entry subcircuit for sky130_fd_sc_hd__a21o_1 abstract view
.subckt sky130_fd_sc_hd__a21o_1 A1 A2 B1 VGND VNB VPB VPWR X
.ends

* Black-box entry subcircuit for sky130_fd_sc_hd__a31o_1 abstract view
.subckt sky130_fd_sc_hd__a31o_1 A1 A2 A3 B1 VGND VNB VPB VPWR X
.ends

* Black-box entry subcircuit for sky130_fd_sc_hd__dlymetal6s2s_1 abstract view
.subckt sky130_fd_sc_hd__dlymetal6s2s_1 A VGND VNB VPB VPWR X
.ends

* Black-box entry subcircuit for sky130_fd_sc_hd__xnor2_1 abstract view
.subckt sky130_fd_sc_hd__xnor2_1 A B VGND VNB VPB VPWR Y
.ends

* Black-box entry subcircuit for sky130_fd_sc_hd__a21boi_1 abstract view
.subckt sky130_fd_sc_hd__a21boi_1 A1 A2 B1_N VGND VNB VPB VPWR Y
.ends

* Black-box entry subcircuit for sky130_fd_sc_hd__o31a_1 abstract view
.subckt sky130_fd_sc_hd__o31a_1 A1 A2 A3 B1 VGND VNB VPB VPWR X
.ends

* Black-box entry subcircuit for sky130_fd_sc_hd__inv_2 abstract view
.subckt sky130_fd_sc_hd__inv_2 A VGND VNB VPB VPWR Y
.ends

* Black-box entry subcircuit for sky130_fd_sc_hd__nor3_1 abstract view
.subckt sky130_fd_sc_hd__nor3_1 A B C VGND VNB VPB VPWR Y
.ends

* Black-box entry subcircuit for sky130_fd_sc_hd__inv_1 abstract view
.subckt sky130_fd_sc_hd__inv_1 A VGND VNB VPB VPWR Y
.ends

* Black-box entry subcircuit for sky130_fd_sc_hd__or4b_1 abstract view
.subckt sky130_fd_sc_hd__or4b_1 A B C D_N VGND VNB VPB VPWR X
.ends

* Black-box entry subcircuit for sky130_fd_sc_hd__conb_1 abstract view
.subckt sky130_fd_sc_hd__conb_1 VGND VNB VPB VPWR HI LO
.ends

* Black-box entry subcircuit for sky130_fd_sc_hd__or4_1 abstract view
.subckt sky130_fd_sc_hd__or4_1 A B C D VGND VNB VPB VPWR X
.ends

.subckt S_EF_ADC12 CMP_top Co FrameData[0] FrameData[10] FrameData[11] FrameData[12]
+ FrameData[13] FrameData[14] FrameData[15] FrameData[16] FrameData[17] FrameData[18]
+ FrameData[19] FrameData[1] FrameData[20] FrameData[21] FrameData[22] FrameData[23]
+ FrameData[24] FrameData[25] FrameData[26] FrameData[27] FrameData[28] FrameData[29]
+ FrameData[2] FrameData[30] FrameData[31] FrameData[3] FrameData[4] FrameData[5]
+ FrameData[6] FrameData[7] FrameData[8] FrameData[9] FrameData_O[0] FrameData_O[10]
+ FrameData_O[11] FrameData_O[12] FrameData_O[13] FrameData_O[14] FrameData_O[15]
+ FrameData_O[16] FrameData_O[17] FrameData_O[18] FrameData_O[19] FrameData_O[1] FrameData_O[20]
+ FrameData_O[21] FrameData_O[22] FrameData_O[23] FrameData_O[24] FrameData_O[25]
+ FrameData_O[26] FrameData_O[27] FrameData_O[28] FrameData_O[29] FrameData_O[2] FrameData_O[30]
+ FrameData_O[31] FrameData_O[3] FrameData_O[4] FrameData_O[5] FrameData_O[6] FrameData_O[7]
+ FrameData_O[8] FrameData_O[9] FrameStrobe[0] FrameStrobe[10] FrameStrobe[11] FrameStrobe[12]
+ FrameStrobe[13] FrameStrobe[14] FrameStrobe[15] FrameStrobe[16] FrameStrobe[17]
+ FrameStrobe[18] FrameStrobe[19] FrameStrobe[1] FrameStrobe[2] FrameStrobe[3] FrameStrobe[4]
+ FrameStrobe[5] FrameStrobe[6] FrameStrobe[7] FrameStrobe[8] FrameStrobe[9] FrameStrobe_O[0]
+ FrameStrobe_O[10] FrameStrobe_O[11] FrameStrobe_O[12] FrameStrobe_O[13] FrameStrobe_O[14]
+ FrameStrobe_O[15] FrameStrobe_O[16] FrameStrobe_O[17] FrameStrobe_O[18] FrameStrobe_O[19]
+ FrameStrobe_O[1] FrameStrobe_O[2] FrameStrobe_O[3] FrameStrobe_O[4] FrameStrobe_O[5]
+ FrameStrobe_O[6] FrameStrobe_O[7] FrameStrobe_O[8] FrameStrobe_O[9] HOLD_top N1BEG[0]
+ N1BEG[1] N1BEG[2] N1BEG[3] N2BEG[0] N2BEG[1] N2BEG[2] N2BEG[3] N2BEG[4] N2BEG[5]
+ N2BEG[6] N2BEG[7] N2BEGb[0] N2BEGb[1] N2BEGb[2] N2BEGb[3] N2BEGb[4] N2BEGb[5] N2BEGb[6]
+ N2BEGb[7] N4BEG[0] N4BEG[10] N4BEG[11] N4BEG[12] N4BEG[13] N4BEG[14] N4BEG[15] N4BEG[1]
+ N4BEG[2] N4BEG[3] N4BEG[4] N4BEG[5] N4BEG[6] N4BEG[7] N4BEG[8] N4BEG[9] NN4BEG[0]
+ NN4BEG[10] NN4BEG[11] NN4BEG[12] NN4BEG[13] NN4BEG[14] NN4BEG[15] NN4BEG[1] NN4BEG[2]
+ NN4BEG[3] NN4BEG[4] NN4BEG[5] NN4BEG[6] NN4BEG[7] NN4BEG[8] NN4BEG[9] RESET_top
+ S1END[0] S1END[1] S1END[2] S1END[3] S2END[0] S2END[1] S2END[2] S2END[3] S2END[4]
+ S2END[5] S2END[6] S2END[7] S2MID[0] S2MID[1] S2MID[2] S2MID[3] S2MID[4] S2MID[5]
+ S2MID[6] S2MID[7] S4END[0] S4END[10] S4END[11] S4END[12] S4END[13] S4END[14] S4END[15]
+ S4END[1] S4END[2] S4END[3] S4END[4] S4END[5] S4END[6] S4END[7] S4END[8] S4END[9]
+ SS4END[0] SS4END[10] SS4END[11] SS4END[12] SS4END[13] SS4END[14] SS4END[15] SS4END[1]
+ SS4END[2] SS4END[3] SS4END[4] SS4END[5] SS4END[6] SS4END[7] SS4END[8] SS4END[9]
+ UserCLK UserCLKo VALUE_top0 VALUE_top1 VALUE_top10 VALUE_top11 VALUE_top2 VALUE_top3
+ VALUE_top4 VALUE_top5 VALUE_top6 VALUE_top7 VALUE_top8 VALUE_top9 VGND VPWR
XFILLER_10_306 VGND VGND VPWR VPWR sky130_fd_sc_hd__fill_2
X_294_ clknet_2_1__leaf_UserCLK_regs _012_ VGND VGND VPWR VPWR net212 sky130_fd_sc_hd__dfxtp_2
X_363_ FrameStrobe[14] VGND VGND VPWR VPWR net136 sky130_fd_sc_hd__clkbuf_1
XFILLER_3_78 VGND VGND VPWR VPWR sky130_fd_sc_hd__fill_2
X_415_ Inst_S_EF_ADC12_switch_matrix.NN4BEG10 VGND VGND VPWR VPWR net189 sky130_fd_sc_hd__buf_1
XTAP_TAPCELL_ROW_8_88 VGND VPWR sky130_fd_sc_hd__tapvpwrvgnd_1
XPHY_EDGE_ROW_0_Left_12 VGND VGND VPWR VPWR sky130_fd_sc_hd__decap_3
X_346_ net23 VGND VGND VPWR VPWR net120 sky130_fd_sc_hd__clkbuf_1
XTAP_TAPCELL_ROW_11_120 VGND VPWR sky130_fd_sc_hd__tapvpwrvgnd_1
X_277_ net14 net43 VGND VGND VPWR VPWR Inst_S_EF_ADC12_ConfigMem.Inst_frame0_bit20.Q
+ sky130_fd_sc_hd__dlxtp_1
X_131_ net230 _044_ _050_ VGND VGND VPWR VPWR _000_ sky130_fd_sc_hd__and3_1
X_200_ net35 net232 VGND VGND VPWR VPWR _031_ sky130_fd_sc_hd__and2_1
X_329_ net5 VGND VGND VPWR VPWR net102 sky130_fd_sc_hd__clkbuf_2
XFILLER_0_57 VGND VGND VPWR VPWR sky130_fd_sc_hd__decap_4
XFILLER_11_220 VGND VGND VPWR VPWR sky130_fd_sc_hd__fill_1
XFILLER_7_246 VGND VGND VPWR VPWR sky130_fd_sc_hd__fill_1
X_114_ net47 net206 net212 net216 Inst_S_EF_ADC12_ConfigMem.Inst_frame1_bit8.Q Inst_S_EF_ADC12_ConfigMem.Inst_frame1_bit9.Q
+ VGND VGND VPWR VPWR Inst_S_EF_ADC12_switch_matrix.N1BEG3 sky130_fd_sc_hd__mux4_1
XTAP_TAPCELL_ROW_5_67 VGND VPWR sky130_fd_sc_hd__tapvpwrvgnd_1
XANTENNA_5 net183 VGND VGND VPWR VPWR sky130_fd_sc_hd__diode_2
XFILLER_6_67 VGND VGND VPWR VPWR sky130_fd_sc_hd__fill_2
Xoutput97 net108 VGND VGND VPWR VPWR FrameData_O[18] sky130_fd_sc_hd__buf_2
XTAP_TAPCELL_ROW_2_46 VGND VPWR sky130_fd_sc_hd__tapvpwrvgnd_1
X_362_ FrameStrobe[13] VGND VGND VPWR VPWR net135 sky130_fd_sc_hd__clkbuf_1
X_293_ clknet_2_0__leaf_UserCLK_regs _011_ VGND VGND VPWR VPWR net211 sky130_fd_sc_hd__dfxtp_1
XFILLER_3_13 VGND VGND VPWR VPWR sky130_fd_sc_hd__fill_2
XFILLER_2_336 VGND VGND VPWR VPWR sky130_fd_sc_hd__decap_4
XTAP_TAPCELL_ROW_11_121 VGND VPWR sky130_fd_sc_hd__tapvpwrvgnd_1
XTAP_TAPCELL_ROW_11_110 VGND VPWR sky130_fd_sc_hd__tapvpwrvgnd_1
X_345_ net22 VGND VGND VPWR VPWR net119 sky130_fd_sc_hd__clkbuf_1
XTAP_TAPCELL_ROW_8_89 VGND VPWR sky130_fd_sc_hd__tapvpwrvgnd_1
X_276_ net12 net40 VGND VGND VPWR VPWR Inst_S_EF_ADC12_ConfigMem.Inst_frame0_bit19.Q
+ sky130_fd_sc_hd__dlxtp_1
X_414_ Inst_S_EF_ADC12_switch_matrix.NN4BEG9 VGND VGND VPWR VPWR net203 sky130_fd_sc_hd__buf_1
X_130_ _046_ _048_ _049_ Inst_S_EF_ADC12_ConfigMem.Inst_frame0_bit31.Q VGND VGND VPWR
+ VPWR _050_ sky130_fd_sc_hd__o22a_1
X_328_ net4 VGND VGND VPWR VPWR net101 sky130_fd_sc_hd__clkbuf_2
X_259_ net24 net42 VGND VGND VPWR VPWR Inst_S_EF_ADC12_ConfigMem.Inst_frame0_bit2.Q
+ sky130_fd_sc_hd__dlxtp_1
XFILLER_11_210 VGND VGND VPWR VPWR sky130_fd_sc_hd__fill_2
XTAP_TAPCELL_ROW_5_68 VGND VPWR sky130_fd_sc_hd__tapvpwrvgnd_1
X_113_ net66 net215 Inst_S_EF_ADC12_ConfigMem.Inst_frame1_bit10.Q VGND VGND VPWR VPWR
+ Inst_S_EF_ADC12_switch_matrix.N2BEG0 sky130_fd_sc_hd__mux2_1
XANTENNA_6 net186 VGND VGND VPWR VPWR sky130_fd_sc_hd__diode_2
XPHY_EDGE_ROW_6_Right_6 VGND VGND VPWR VPWR sky130_fd_sc_hd__decap_3
Xoutput98 net109 VGND VGND VPWR VPWR FrameData_O[19] sky130_fd_sc_hd__buf_2
XFILLER_0_253 VPWR VGND VPWR VGND sky130_ef_sc_hd__decap_12
XTAP_TAPCELL_ROW_2_47 VGND VPWR sky130_fd_sc_hd__tapvpwrvgnd_1
XFILLER_8_375 VGND VGND VPWR VPWR sky130_fd_sc_hd__fill_2
XFILLER_8_342 VGND VGND VPWR VPWR sky130_fd_sc_hd__fill_1
X_361_ FrameStrobe[12] VGND VGND VPWR VPWR net134 sky130_fd_sc_hd__clkbuf_1
X_292_ clknet_2_0__leaf_UserCLK_regs _010_ VGND VGND VPWR VPWR net210 sky130_fd_sc_hd__dfxtp_1
XFILLER_10_138 VGND VGND VPWR VPWR sky130_fd_sc_hd__fill_2
XTAP_TAPCELL_ROW_11_111 VGND VPWR sky130_fd_sc_hd__tapvpwrvgnd_1
X_275_ net11 net40 VGND VGND VPWR VPWR Inst_S_EF_ADC12_ConfigMem.Inst_frame0_bit18.Q
+ sky130_fd_sc_hd__dlxtp_1
X_344_ net21 VGND VGND VPWR VPWR net118 sky130_fd_sc_hd__clkbuf_1
X_413_ Inst_S_EF_ADC12_switch_matrix.NN4BEG8 VGND VGND VPWR VPWR net202 sky130_fd_sc_hd__clkbuf_1
Xoutput200 net211 VGND VGND VPWR VPWR VALUE_top3 sky130_fd_sc_hd__buf_2
Xclkbuf_2_2__f_UserCLK_regs clknet_0_UserCLK_regs VGND VGND VPWR VPWR clknet_2_2__leaf_UserCLK_regs
+ sky130_fd_sc_hd__clkbuf_16
XFILLER_9_57 VGND VGND VPWR VPWR sky130_fd_sc_hd__fill_2
X_189_ net212 _027_ _069_ _065_ VGND VGND VPWR VPWR _012_ sky130_fd_sc_hd__o211a_1
X_258_ net13 net40 VGND VGND VPWR VPWR Inst_S_EF_ADC12_ConfigMem.Inst_frame0_bit1.Q
+ sky130_fd_sc_hd__dlxtp_1
X_327_ net3 VGND VGND VPWR VPWR net100 sky130_fd_sc_hd__buf_1
X_112_ net65 net214 Inst_S_EF_ADC12_ConfigMem.Inst_frame1_bit11.Q VGND VGND VPWR VPWR
+ Inst_S_EF_ADC12_switch_matrix.N2BEG1 sky130_fd_sc_hd__mux2_1
XFILLER_7_259 VGND VGND VPWR VPWR sky130_fd_sc_hd__fill_1
XTAP_TAPCELL_ROW_5_69 VGND VPWR sky130_fd_sc_hd__tapvpwrvgnd_1
XFILLER_6_292 VGND VGND VPWR VPWR sky130_fd_sc_hd__fill_2
Xhold10 Inst_EF_ADC12.next_bit\[4\] VGND VGND VPWR VPWR net228 sky130_fd_sc_hd__dlygate4sd3_1
XANTENNA_7 net187 VGND VGND VPWR VPWR sky130_fd_sc_hd__diode_2
XFILLER_0_265 VPWR VGND VPWR VGND sky130_ef_sc_hd__decap_12
Xoutput99 net110 VGND VGND VPWR VPWR FrameData_O[1] sky130_fd_sc_hd__buf_2
Xoutput88 net99 VGND VGND VPWR VPWR FrameData_O[0] sky130_fd_sc_hd__buf_2
XTAP_TAPCELL_ROW_2_48 VGND VPWR sky130_fd_sc_hd__tapvpwrvgnd_1
XFILLER_8_365 VGND VGND VPWR VPWR sky130_fd_sc_hd__decap_6
X_360_ FrameStrobe[11] VGND VGND VPWR VPWR net133 sky130_fd_sc_hd__clkbuf_1
X_291_ clknet_2_3__leaf_UserCLK_regs _009_ VGND VGND VPWR VPWR net207 sky130_fd_sc_hd__dfxtp_2
XFILLER_5_313 VGND VGND VPWR VPWR sky130_fd_sc_hd__decap_3
XTAP_TAPCELL_ROW_11_112 VGND VPWR sky130_fd_sc_hd__tapvpwrvgnd_1
XFILLER_5_121 VGND VGND VPWR VPWR sky130_fd_sc_hd__fill_1
X_412_ Inst_S_EF_ADC12_switch_matrix.NN4BEG7 VGND VGND VPWR VPWR net201 sky130_fd_sc_hd__buf_1
X_343_ net20 VGND VGND VPWR VPWR net117 sky130_fd_sc_hd__buf_1
X_274_ net10 net43 VGND VGND VPWR VPWR Inst_S_EF_ADC12_ConfigMem.Inst_frame0_bit17.Q
+ sky130_fd_sc_hd__dlxtp_1
Xoutput201 net212 VGND VGND VPWR VPWR VALUE_top4 sky130_fd_sc_hd__buf_2
XFILLER_1_393 VPWR VGND VPWR VGND sky130_ef_sc_hd__decap_12
XFILLER_0_27 VGND VGND VPWR VPWR sky130_fd_sc_hd__fill_1
XPHY_EDGE_ROW_4_Left_16 VGND VGND VPWR VPWR sky130_fd_sc_hd__decap_3
XFILLER_9_36 VGND VGND VPWR VPWR sky130_fd_sc_hd__fill_2
X_188_ net226 net228 VGND VGND VPWR VPWR _027_ sky130_fd_sc_hd__and2_1
X_257_ net2 net40 VGND VGND VPWR VPWR Inst_S_EF_ADC12_ConfigMem.Inst_frame0_bit0.Q
+ sky130_fd_sc_hd__dlxtp_1
X_326_ net44 VGND VGND VPWR VPWR net130 sky130_fd_sc_hd__buf_1
XFILLER_9_290 VGND VGND VPWR VPWR sky130_fd_sc_hd__fill_2
XFILLER_11_267 VGND VGND VPWR VPWR sky130_fd_sc_hd__fill_1
X_111_ net64 net213 Inst_S_EF_ADC12_ConfigMem.Inst_frame1_bit12.Q VGND VGND VPWR VPWR
+ Inst_S_EF_ADC12_switch_matrix.N2BEG2 sky130_fd_sc_hd__mux2_1
X_309_ clknet_2_1__leaf_UserCLK_regs _027_ VGND VGND VPWR VPWR Inst_EF_ADC12.next_bit\[3\]
+ sky130_fd_sc_hd__dfxtp_1
XFILLER_7_238 VGND VGND VPWR VPWR sky130_fd_sc_hd__decap_8
Xhold11 Inst_EF_ADC12.next_bit\[3\] VGND VGND VPWR VPWR net229 sky130_fd_sc_hd__dlygate4sd3_1
XANTENNA_8 net188 VGND VGND VPWR VPWR sky130_fd_sc_hd__diode_2
XFILLER_6_37 VGND VGND VPWR VPWR sky130_fd_sc_hd__fill_2
XFILLER_0_200 VGND VGND VPWR VPWR sky130_fd_sc_hd__decap_4
XFILLER_0_277 VGND VGND VPWR VPWR sky130_fd_sc_hd__decap_3
XTAP_TAPCELL_ROW_2_49 VGND VPWR sky130_fd_sc_hd__tapvpwrvgnd_1
Xoutput89 net100 VGND VGND VPWR VPWR FrameData_O[10] sky130_fd_sc_hd__buf_2
X_290_ clknet_2_0__leaf_UserCLK_regs _008_ VGND VGND VPWR VPWR net206 sky130_fd_sc_hd__dfxtp_2
XFILLER_8_141 VGND VGND VPWR VPWR sky130_fd_sc_hd__fill_1
XFILLER_4_380 VPWR VGND VPWR VGND sky130_ef_sc_hd__decap_12
XTAP_TAPCELL_ROW_11_113 VGND VPWR sky130_fd_sc_hd__tapvpwrvgnd_1
X_273_ net9 net41 VGND VGND VPWR VPWR Inst_S_EF_ADC12_ConfigMem.Inst_frame0_bit16.Q
+ sky130_fd_sc_hd__dlxtp_1
X_342_ net19 VGND VGND VPWR VPWR net116 sky130_fd_sc_hd__buf_1
XFILLER_2_306 VGND VGND VPWR VPWR sky130_fd_sc_hd__fill_2
X_411_ Inst_S_EF_ADC12_switch_matrix.NN4BEG6 VGND VGND VPWR VPWR net200 sky130_fd_sc_hd__clkbuf_1
XFILLER_5_166 VGND VGND VPWR VPWR sky130_fd_sc_hd__fill_2
Xoutput202 net213 VGND VGND VPWR VPWR VALUE_top5 sky130_fd_sc_hd__buf_2
XFILLER_1_383 VGND VGND VPWR VPWR sky130_fd_sc_hd__decap_3
XFILLER_2_136 VGND VGND VPWR VPWR sky130_fd_sc_hd__fill_1
XFILLER_2_169 VGND VGND VPWR VPWR sky130_fd_sc_hd__decap_3
X_187_ net229 _063_ VGND VGND VPWR VPWR _069_ sky130_fd_sc_hd__nand2_1
X_256_ net26 net39 VGND VGND VPWR VPWR Inst_S_EF_ADC12_ConfigMem.Inst_frame1_bit31.Q
+ sky130_fd_sc_hd__dlxtp_1
X_325_ net32 VGND VGND VPWR VPWR net129 sky130_fd_sc_hd__buf_1
XFILLER_7_228 VGND VGND VPWR VPWR sky130_fd_sc_hd__fill_1
Xclkload0 clknet_2_0__leaf_UserCLK_regs VGND VGND VPWR VPWR clkload0/Y sky130_fd_sc_hd__bufinv_16
X_110_ net63 net212 Inst_S_EF_ADC12_ConfigMem.Inst_frame1_bit13.Q VGND VGND VPWR VPWR
+ Inst_S_EF_ADC12_switch_matrix.N2BEG3 sky130_fd_sc_hd__mux2_1
X_239_ net7 net37 VGND VGND VPWR VPWR Inst_S_EF_ADC12_ConfigMem.Inst_frame1_bit14.Q
+ sky130_fd_sc_hd__dlxtp_1
X_308_ clknet_2_1__leaf_UserCLK_regs _026_ VGND VGND VPWR VPWR Inst_EF_ADC12.next_bit\[2\]
+ sky130_fd_sc_hd__dfxtp_1
Xhold12 Inst_EF_ADC12.curr_state\[0\] VGND VGND VPWR VPWR net230 sky130_fd_sc_hd__dlygate4sd3_1
XANTENNA_9 net201 VGND VGND VPWR VPWR sky130_fd_sc_hd__diode_2
XFILLER_0_223 VGND VGND VPWR VPWR sky130_fd_sc_hd__fill_1
XFILLER_8_197 VGND VGND VPWR VPWR sky130_fd_sc_hd__fill_1
XFILLER_4_392 VGND VGND VPWR VPWR sky130_fd_sc_hd__fill_2
X_341_ net18 VGND VGND VPWR VPWR net115 sky130_fd_sc_hd__buf_1
X_272_ net8 net40 VGND VGND VPWR VPWR Inst_S_EF_ADC12_ConfigMem.Inst_frame0_bit15.Q
+ sky130_fd_sc_hd__dlxtp_1
X_410_ Inst_S_EF_ADC12_switch_matrix.NN4BEG5 VGND VGND VPWR VPWR net199 sky130_fd_sc_hd__buf_1
XTAP_TAPCELL_ROW_11_114 VGND VPWR sky130_fd_sc_hd__tapvpwrvgnd_1
Xoutput203 net214 VGND VGND VPWR VPWR VALUE_top6 sky130_fd_sc_hd__buf_2
X_186_ net211 _026_ _068_ net34 VGND VGND VPWR VPWR _011_ sky130_fd_sc_hd__o211a_1
X_255_ net25 net45 VGND VGND VPWR VPWR Inst_S_EF_ADC12_ConfigMem.Inst_frame1_bit30.Q
+ sky130_fd_sc_hd__dlxtp_1
X_324_ net31 VGND VGND VPWR VPWR net128 sky130_fd_sc_hd__buf_1
Xclkload1 clknet_2_2__leaf_UserCLK_regs VGND VGND VPWR VPWR clkload1/Y sky130_fd_sc_hd__clkinv_4
XFILLER_11_225 VGND VGND VPWR VPWR sky130_fd_sc_hd__fill_2
XFILLER_1_3 VGND VGND VPWR VPWR sky130_fd_sc_hd__fill_1
XFILLER_6_262 VPWR VGND VPWR VGND sky130_ef_sc_hd__decap_12
X_307_ clknet_2_0__leaf_UserCLK_regs _025_ VGND VGND VPWR VPWR Inst_EF_ADC12.next_bit\[1\]
+ sky130_fd_sc_hd__dfxtp_1
X_238_ net6 net36 VGND VGND VPWR VPWR Inst_S_EF_ADC12_ConfigMem.Inst_frame1_bit13.Q
+ sky130_fd_sc_hd__dlxtp_1
X_169_ net76 net216 Inst_S_EF_ADC12_ConfigMem.Inst_frame0_bit6.Q VGND VGND VPWR VPWR
+ Inst_S_EF_ADC12_switch_matrix.N4BEG12 sky130_fd_sc_hd__mux2_1
Xhold13 Inst_EF_ADC12.next_bit\[5\] VGND VGND VPWR VPWR net231 sky130_fd_sc_hd__dlygate4sd3_1
XFILLER_3_254 VGND VGND VPWR VPWR sky130_fd_sc_hd__decap_6
XFILLER_5_349 VPWR VGND VPWR VGND sky130_ef_sc_hd__decap_12
XTAP_TAPCELL_ROW_11_115 VGND VPWR sky130_fd_sc_hd__tapvpwrvgnd_1
X_271_ net7 net41 VGND VGND VPWR VPWR Inst_S_EF_ADC12_ConfigMem.Inst_frame0_bit14.Q
+ sky130_fd_sc_hd__dlxtp_1
X_340_ net17 VGND VGND VPWR VPWR net114 sky130_fd_sc_hd__clkbuf_2
Xoutput204 net215 VGND VGND VPWR VPWR VALUE_top7 sky130_fd_sc_hd__buf_2
X_254_ net23 net39 VGND VGND VPWR VPWR Inst_S_EF_ADC12_ConfigMem.Inst_frame1_bit29.Q
+ sky130_fd_sc_hd__dlxtp_1
XFILLER_2_116 VGND VGND VPWR VPWR sky130_fd_sc_hd__fill_1
X_185_ net35 net229 VGND VGND VPWR VPWR _026_ sky130_fd_sc_hd__and2_1
X_323_ net30 VGND VGND VPWR VPWR net127 sky130_fd_sc_hd__buf_1
Xclkload2 clknet_2_3__leaf_UserCLK_regs VGND VGND VPWR VPWR clkload2/Y sky130_fd_sc_hd__bufinv_16
X_099_ net52 net213 Inst_S_EF_ADC12_ConfigMem.Inst_frame1_bit24.Q VGND VGND VPWR VPWR
+ Inst_S_EF_ADC12_switch_matrix.N2BEGb6 sky130_fd_sc_hd__mux2_1
X_237_ net5 net36 VGND VGND VPWR VPWR Inst_S_EF_ADC12_ConfigMem.Inst_frame1_bit12.Q
+ sky130_fd_sc_hd__dlxtp_1
XFILLER_6_274 VGND VGND VPWR VPWR sky130_fd_sc_hd__decap_6
X_306_ clknet_2_0__leaf_UserCLK_regs _024_ VGND VGND VPWR VPWR Inst_EF_ADC12.next_bit\[0\]
+ sky130_fd_sc_hd__dfxtp_1
X_168_ net75 net217 Inst_S_EF_ADC12_ConfigMem.Inst_frame0_bit7.Q VGND VGND VPWR VPWR
+ Inst_S_EF_ADC12_switch_matrix.N4BEG13 sky130_fd_sc_hd__mux2_1
Xhold14 Inst_EF_ADC12.next_bit\[8\] VGND VGND VPWR VPWR net232 sky130_fd_sc_hd__dlygate4sd3_1
XFILLER_3_277 VGND VGND VPWR VPWR sky130_fd_sc_hd__decap_3
XFILLER_0_236 VGND VGND VPWR VPWR sky130_fd_sc_hd__fill_1
XPHY_EDGE_ROW_1_Right_1 VGND VGND VPWR VPWR sky130_fd_sc_hd__decap_3
XFILLER_5_328 VGND VGND VPWR VPWR sky130_fd_sc_hd__decap_4
XTAP_TAPCELL_ROW_11_116 VGND VPWR sky130_fd_sc_hd__tapvpwrvgnd_1
XFILLER_1_375 VGND VGND VPWR VPWR sky130_fd_sc_hd__decap_8
X_270_ net6 net40 VGND VGND VPWR VPWR Inst_S_EF_ADC12_ConfigMem.Inst_frame0_bit13.Q
+ sky130_fd_sc_hd__dlxtp_1
Xoutput205 net216 VGND VGND VPWR VPWR VALUE_top8 sky130_fd_sc_hd__buf_2
X_399_ Inst_S_EF_ADC12_switch_matrix.N4BEG10 VGND VGND VPWR VPWR net173 sky130_fd_sc_hd__buf_1
XFILLER_4_73 VGND VGND VPWR VPWR sky130_fd_sc_hd__decap_3
XFILLER_4_191 VGND VGND VPWR VPWR sky130_fd_sc_hd__fill_1
X_322_ net29 VGND VGND VPWR VPWR net126 sky130_fd_sc_hd__clkbuf_2
XTAP_TAPCELL_ROW_9_94 VGND VPWR sky130_fd_sc_hd__tapvpwrvgnd_1
XFILLER_6_401 VGND VGND VPWR VPWR sky130_fd_sc_hd__decap_3
X_253_ net22 net39 VGND VGND VPWR VPWR Inst_S_EF_ADC12_ConfigMem.Inst_frame1_bit28.Q
+ sky130_fd_sc_hd__dlxtp_1
XTAP_TAPCELL_ROW_0_30 VGND VPWR sky130_fd_sc_hd__tapvpwrvgnd_1
X_184_ net233 net33 VGND VGND VPWR VPWR _068_ sky130_fd_sc_hd__nand2_1
X_167_ net74 net208 Inst_S_EF_ADC12_ConfigMem.Inst_frame0_bit8.Q VGND VGND VPWR VPWR
+ Inst_S_EF_ADC12_switch_matrix.N4BEG14 sky130_fd_sc_hd__mux2_1
X_236_ net4 net36 VGND VGND VPWR VPWR Inst_S_EF_ADC12_ConfigMem.Inst_frame1_bit11.Q
+ sky130_fd_sc_hd__dlxtp_1
X_305_ clknet_2_0__leaf_UserCLK_regs _023_ VGND VGND VPWR VPWR Inst_EF_ADC12.shift_value\[0\]
+ sky130_fd_sc_hd__dfxtp_1
X_098_ net51 net212 Inst_S_EF_ADC12_ConfigMem.Inst_frame1_bit25.Q VGND VGND VPWR VPWR
+ Inst_S_EF_ADC12_switch_matrix.N2BEGb7 sky130_fd_sc_hd__mux2_1
Xhold15 Inst_EF_ADC12.next_bit\[2\] VGND VGND VPWR VPWR net233 sky130_fd_sc_hd__dlygate4sd3_1
XFILLER_3_223 VGND VGND VPWR VPWR sky130_fd_sc_hd__fill_1
XFILLER_3_234 VGND VGND VPWR VPWR sky130_fd_sc_hd__decap_3
XPHY_EDGE_ROW_11_Left_23 VGND VGND VPWR VPWR sky130_fd_sc_hd__decap_3
X_219_ clknet_2_2__leaf_UserCLK_regs _005_ VGND VGND VPWR VPWR Inst_EF_ADC12.curr_state\[2\]
+ sky130_fd_sc_hd__dfxtp_1
XTAP_TAPCELL_ROW_6_73 VGND VPWR sky130_fd_sc_hd__tapvpwrvgnd_1
XFILLER_0_204 VGND VGND VPWR VPWR sky130_fd_sc_hd__fill_1
XFILLER_7_51 VGND VGND VPWR VPWR sky130_fd_sc_hd__fill_1
XFILLER_8_189 VGND VGND VPWR VPWR sky130_fd_sc_hd__fill_1
XTAP_TAPCELL_ROW_3_52 VGND VPWR sky130_fd_sc_hd__tapvpwrvgnd_1
XTAP_TAPCELL_ROW_11_117 VGND VPWR sky130_fd_sc_hd__tapvpwrvgnd_1
XFILLER_1_321 VGND VGND VPWR VPWR sky130_fd_sc_hd__fill_2
Xoutput206 net217 VGND VGND VPWR VPWR VALUE_top9 sky130_fd_sc_hd__buf_2
X_398_ Inst_S_EF_ADC12_switch_matrix.N4BEG9 VGND VGND VPWR VPWR net187 sky130_fd_sc_hd__clkbuf_1
XFILLER_4_85 VGND VGND VPWR VPWR sky130_fd_sc_hd__fill_1
XFILLER_11_409 VGND VGND VPWR VPWR sky130_fd_sc_hd__fill_1
XTAP_TAPCELL_ROW_9_95 VGND VPWR sky130_fd_sc_hd__tapvpwrvgnd_1
XTAP_TAPCELL_ROW_0_31 VGND VPWR sky130_fd_sc_hd__tapvpwrvgnd_1
Xfanout40 net41 VGND VGND VPWR VPWR net40 sky130_fd_sc_hd__buf_2
X_321_ net28 VGND VGND VPWR VPWR net125 sky130_fd_sc_hd__clkbuf_2
X_252_ net21 net39 VGND VGND VPWR VPWR Inst_S_EF_ADC12_ConfigMem.Inst_frame1_bit27.Q
+ sky130_fd_sc_hd__dlxtp_1
X_183_ net210 _025_ _067_ net34 VGND VGND VPWR VPWR _010_ sky130_fd_sc_hd__o211a_1
XFILLER_10_250 VGND VGND VPWR VPWR sky130_fd_sc_hd__fill_2
X_304_ clknet_2_2__leaf_UserCLK_regs _022_ VGND VGND VPWR VPWR Inst_EF_ADC12.sample_counter\[3\]
+ sky130_fd_sc_hd__dfxtp_1
X_235_ net3 net38 VGND VGND VPWR VPWR Inst_S_EF_ADC12_ConfigMem.Inst_frame1_bit10.Q
+ sky130_fd_sc_hd__dlxtp_1
XFILLER_6_243 VGND VGND VPWR VPWR sky130_fd_sc_hd__decap_6
XFILLER_1_97 VGND VGND VPWR VPWR sky130_fd_sc_hd__decap_3
X_166_ net67 net209 Inst_S_EF_ADC12_ConfigMem.Inst_frame0_bit9.Q VGND VGND VPWR VPWR
+ Inst_S_EF_ADC12_switch_matrix.N4BEG15 sky130_fd_sc_hd__mux2_1
X_097_ net73 Inst_EF_ADC12.VALID Inst_S_EF_ADC12_ConfigMem.Inst_frame1_bit26.Q VGND
+ VGND VPWR VPWR Inst_S_EF_ADC12_switch_matrix.N4BEG0 sky130_fd_sc_hd__mux2_1
XFILLER_10_62 VGND VGND VPWR VPWR sky130_fd_sc_hd__fill_1
Xhold16 Inst_EF_ADC12.next_bit\[1\] VGND VGND VPWR VPWR net234 sky130_fd_sc_hd__dlygate4sd3_1
X_149_ Inst_EF_ADC12.curr_state\[2\] Inst_EF_ADC12.curr_state\[3\] VGND VGND VPWR
+ VPWR net151 sky130_fd_sc_hd__nand2b_1
X_218_ clknet_2_3__leaf_UserCLK_regs _004_ VGND VGND VPWR VPWR Inst_EF_ADC12.curr_state\[1\]
+ sky130_fd_sc_hd__dfxtp_1
XTAP_TAPCELL_ROW_6_74 VGND VPWR sky130_fd_sc_hd__tapvpwrvgnd_1
XFILLER_7_393 VPWR VGND VPWR VGND sky130_ef_sc_hd__decap_12
XFILLER_7_360 VGND VGND VPWR VPWR sky130_fd_sc_hd__decap_8
XFILLER_4_363 VGND VGND VPWR VPWR sky130_fd_sc_hd__fill_1
XTAP_TAPCELL_ROW_3_53 VGND VPWR sky130_fd_sc_hd__tapvpwrvgnd_1
XTAP_TAPCELL_ROW_11_118 VGND VPWR sky130_fd_sc_hd__tapvpwrvgnd_1
X_397_ Inst_S_EF_ADC12_switch_matrix.N4BEG8 VGND VGND VPWR VPWR net186 sky130_fd_sc_hd__buf_1
Xclkbuf_2_3__f_UserCLK_regs clknet_0_UserCLK_regs VGND VGND VPWR VPWR clknet_2_3__leaf_UserCLK_regs
+ sky130_fd_sc_hd__clkbuf_16
X_320_ net27 VGND VGND VPWR VPWR net124 sky130_fd_sc_hd__buf_1
XTAP_TAPCELL_ROW_0_32 VGND VPWR sky130_fd_sc_hd__tapvpwrvgnd_1
X_251_ net20 net39 VGND VGND VPWR VPWR Inst_S_EF_ADC12_ConfigMem.Inst_frame1_bit26.Q
+ sky130_fd_sc_hd__dlxtp_1
Xfanout41 FrameStrobe[0] VGND VGND VPWR VPWR net41 sky130_fd_sc_hd__buf_2
X_182_ net35 net233 VGND VGND VPWR VPWR _025_ sky130_fd_sc_hd__and2_1
XTAP_TAPCELL_ROW_9_96 VGND VPWR sky130_fd_sc_hd__tapvpwrvgnd_1
X_303_ clknet_2_2__leaf_UserCLK_regs _021_ VGND VGND VPWR VPWR Inst_EF_ADC12.sample_counter\[2\]
+ sky130_fd_sc_hd__dfxtp_1
X_165_ net89 net209 Inst_S_EF_ADC12_ConfigMem.Inst_frame0_bit10.Q VGND VGND VPWR VPWR
+ Inst_S_EF_ADC12_switch_matrix.NN4BEG0 sky130_fd_sc_hd__mux2_1
XFILLER_1_54 VGND VGND VPWR VPWR sky130_fd_sc_hd__fill_2
X_234_ net44 net37 VGND VGND VPWR VPWR Inst_S_EF_ADC12_ConfigMem.Inst_frame1_bit9.Q
+ sky130_fd_sc_hd__dlxtp_1
X_096_ net72 Inst_EF_ADC12.VALID Inst_S_EF_ADC12_ConfigMem.Inst_frame1_bit27.Q VGND
+ VGND VPWR VPWR Inst_S_EF_ADC12_switch_matrix.N4BEG1 sky130_fd_sc_hd__mux2_1
Xhold17 Inst_EF_ADC12.VALID VGND VGND VPWR VPWR net235 sky130_fd_sc_hd__dlygate4sd3_1
X_148_ Inst_EF_ADC12.curr_state\[2\] Inst_EF_ADC12.curr_state\[5\] VGND VGND VPWR
+ VPWR net204 sky130_fd_sc_hd__or2_1
X_217_ clknet_2_3__leaf_UserCLK_regs _003_ VGND VGND VPWR VPWR Inst_EF_ADC12.curr_state\[0\]
+ sky130_fd_sc_hd__dfxtp_1
XTAP_TAPCELL_ROW_6_75 VGND VPWR sky130_fd_sc_hd__tapvpwrvgnd_1
XFILLER_3_269 VGND VGND VPWR VPWR sky130_fd_sc_hd__decap_8
XFILLER_0_228 VGND VGND VPWR VPWR sky130_fd_sc_hd__decap_8
XPHY_EDGE_ROW_5_Right_5 VGND VGND VPWR VPWR sky130_fd_sc_hd__decap_3
XFILLER_4_397 VGND VGND VPWR VPWR sky130_fd_sc_hd__decap_6
XTAP_TAPCELL_ROW_3_54 VGND VPWR sky130_fd_sc_hd__tapvpwrvgnd_1
XTAP_TAPCELL_ROW_11_119 VGND VPWR sky130_fd_sc_hd__tapvpwrvgnd_1
XTAP_TAPCELL_ROW_11_108 VGND VPWR sky130_fd_sc_hd__tapvpwrvgnd_1
XFILLER_1_389 VGND VGND VPWR VPWR sky130_fd_sc_hd__decap_3
X_396_ Inst_S_EF_ADC12_switch_matrix.N4BEG7 VGND VGND VPWR VPWR net185 sky130_fd_sc_hd__clkbuf_1
X_250_ net19 net37 VGND VGND VPWR VPWR Inst_S_EF_ADC12_ConfigMem.Inst_frame1_bit25.Q
+ sky130_fd_sc_hd__dlxtp_1
XTAP_TAPCELL_ROW_0_33 VGND VPWR sky130_fd_sc_hd__tapvpwrvgnd_1
X_181_ net234 net33 VGND VGND VPWR VPWR _067_ sky130_fd_sc_hd__nand2_1
Xfanout42 FrameStrobe[0] VGND VGND VPWR VPWR net42 sky130_fd_sc_hd__clkbuf_2
XTAP_TAPCELL_ROW_9_97 VGND VPWR sky130_fd_sc_hd__tapvpwrvgnd_1
XFILLER_1_164 VGND VGND VPWR VPWR sky130_fd_sc_hd__decap_4
X_379_ Inst_S_EF_ADC12_switch_matrix.N2BEG6 VGND VGND VPWR VPWR net162 sky130_fd_sc_hd__buf_1
X_164_ net88 net208 Inst_S_EF_ADC12_ConfigMem.Inst_frame0_bit11.Q VGND VGND VPWR VPWR
+ Inst_S_EF_ADC12_switch_matrix.NN4BEG1 sky130_fd_sc_hd__mux2_1
X_302_ clknet_2_2__leaf_UserCLK_regs _020_ VGND VGND VPWR VPWR Inst_EF_ADC12.sample_counter\[1\]
+ sky130_fd_sc_hd__dfxtp_1
X_095_ net71 Inst_EF_ADC12.VALID Inst_S_EF_ADC12_ConfigMem.Inst_frame1_bit28.Q VGND
+ VGND VPWR VPWR Inst_S_EF_ADC12_switch_matrix.N4BEG2 sky130_fd_sc_hd__mux2_1
X_233_ net32 net37 VGND VGND VPWR VPWR Inst_S_EF_ADC12_ConfigMem.Inst_frame1_bit8.Q