*SPEF "ieee 1481-1999"
*DESIGN "N_IO"
*DATE "08:59:54 Monday February 24, 2025"
*VENDOR "The OpenROAD Project"
*PROGRAM "OpenROAD"
*VERSION "87af90f72f3f9be1fdfa1d886f0dd8d8b8f34694"
*DESIGN_FLOW "NAME_SCOPE LOCAL" "PIN_CAP NONE"
*DIVIDER /
*DELIMITER :
*BUS_DELIMITER []
*T_UNIT 1 NS
*C_UNIT 1 PF
*R_UNIT 1 OHM
*L_UNIT 1 HENRY

*NAME_MAP
*1 A_I_top
*2 A_O_top
*3 A_T_top
*4 A_config_C_bit0
*5 A_config_C_bit1
*6 A_config_C_bit2
*7 A_config_C_bit3
*8 B_I_top
*9 B_O_top
*10 B_T_top
*11 B_config_C_bit0
*12 B_config_C_bit1
*13 B_config_C_bit2
*14 B_config_C_bit3
*15 Ci
*16 FrameData[0]
*17 FrameData[10]
*18 FrameData[11]
*19 FrameData[12]
*20 FrameData[13]
*21 FrameData[14]
*22 FrameData[15]
*23 FrameData[16]
*24 FrameData[17]
*25 FrameData[18]
*26 FrameData[19]
*27 FrameData[1]
*28 FrameData[20]
*29 FrameData[21]
*30 FrameData[22]
*31 FrameData[23]
*32 FrameData[24]
*33 FrameData[25]
*34 FrameData[26]
*35 FrameData[27]
*36 FrameData[28]
*37 FrameData[29]
*38 FrameData[2]
*39 FrameData[30]
*40 FrameData[31]
*41 FrameData[3]
*42 FrameData[4]
*43 FrameData[5]
*44 FrameData[6]
*45 FrameData[7]
*46 FrameData[8]
*47 FrameData[9]
*48 FrameData_O[0]
*49 FrameData_O[10]
*50 FrameData_O[11]
*51 FrameData_O[12]
*52 FrameData_O[13]
*53 FrameData_O[14]
*54 FrameData_O[15]
*55 FrameData_O[16]
*56 FrameData_O[17]
*57 FrameData_O[18]
*58 FrameData_O[19]
*59 FrameData_O[1]
*60 FrameData_O[20]
*61 FrameData_O[21]
*62 FrameData_O[22]
*63 FrameData_O[23]
*64 FrameData_O[24]
*65 FrameData_O[25]
*66 FrameData_O[26]
*67 FrameData_O[27]
*68 FrameData_O[28]
*69 FrameData_O[29]
*70 FrameData_O[2]
*71 FrameData_O[30]
*72 FrameData_O[31]
*73 FrameData_O[3]
*74 FrameData_O[4]
*75 FrameData_O[5]
*76 FrameData_O[6]
*77 FrameData_O[7]
*78 FrameData_O[8]
*79 FrameData_O[9]
*80 FrameStrobe[0]
*81 FrameStrobe[10]
*82 FrameStrobe[11]
*83 FrameStrobe[12]
*84 FrameStrobe[13]
*85 FrameStrobe[14]
*86 FrameStrobe[15]
*87 FrameStrobe[16]
*88 FrameStrobe[17]
*89 FrameStrobe[18]
*90 FrameStrobe[19]
*91 FrameStrobe[1]
*92 FrameStrobe[2]
*93 FrameStrobe[3]
*94 FrameStrobe[4]
*95 FrameStrobe[5]
*96 FrameStrobe[6]
*97 FrameStrobe[7]
*98 FrameStrobe[8]
*99 FrameStrobe[9]
*100 FrameStrobe_O[0]
*101 FrameStrobe_O[10]
*102 FrameStrobe_O[11]
*103 FrameStrobe_O[12]
*104 FrameStrobe_O[13]
*105 FrameStrobe_O[14]
*106 FrameStrobe_O[15]
*107 FrameStrobe_O[16]
*108 FrameStrobe_O[17]
*109 FrameStrobe_O[18]
*110 FrameStrobe_O[19]
*111 FrameStrobe_O[1]
*112 FrameStrobe_O[2]
*113 FrameStrobe_O[3]
*114 FrameStrobe_O[4]
*115 FrameStrobe_O[5]
*116 FrameStrobe_O[6]
*117 FrameStrobe_O[7]
*118 FrameStrobe_O[8]
*119 FrameStrobe_O[9]
*120 N1END[0]
*121 N1END[1]
*122 N1END[2]
*123 N1END[3]
*124 N2END[0]
*125 N2END[1]
*126 N2END[2]
*127 N2END[3]
*128 N2END[4]
*129 N2END[5]
*130 N2END[6]
*131 N2END[7]
*132 N2MID[0]
*133 N2MID[1]
*134 N2MID[2]
*135 N2MID[3]
*136 N2MID[4]
*137 N2MID[5]
*138 N2MID[6]
*139 N2MID[7]
*140 N4END[0]
*141 N4END[10]
*142 N4END[11]
*143 N4END[12]
*144 N4END[13]
*145 N4END[14]
*146 N4END[15]
*147 N4END[1]
*148 N4END[2]
*149 N4END[3]
*150 N4END[4]
*151 N4END[5]
*152 N4END[6]
*153 N4END[7]
*154 N4END[8]
*155 N4END[9]
*156 NN4END[0]
*157 NN4END[10]
*158 NN4END[11]
*159 NN4END[12]
*160 NN4END[13]
*161 NN4END[14]
*162 NN4END[15]
*163 NN4END[1]
*164 NN4END[2]
*165 NN4END[3]
*166 NN4END[4]
*167 NN4END[5]
*168 NN4END[6]
*169 NN4END[7]
*170 NN4END[8]
*171 NN4END[9]
*172 S1BEG[0]
*173 S1BEG[1]
*174 S1BEG[2]
*175 S1BEG[3]
*176 S2BEG[0]
*177 S2BEG[1]
*178 S2BEG[2]
*179 S2BEG[3]
*180 S2BEG[4]
*181 S2BEG[5]
*182 S2BEG[6]
*183 S2BEG[7]
*184 S2BEGb[0]
*185 S2BEGb[1]
*186 S2BEGb[2]
*187 S2BEGb[3]
*188 S2BEGb[4]
*189 S2BEGb[5]
*190 S2BEGb[6]
*191 S2BEGb[7]
*192 S4BEG[0]
*193 S4BEG[10]
*194 S4BEG[11]
*195 S4BEG[12]
*196 S4BEG[13]
*197 S4BEG[14]
*198 S4BEG[15]
*199 S4BEG[1]
*200 S4BEG[2]
*201 S4BEG[3]
*202 S4BEG[4]
*203 S4BEG[5]
*204 S4BEG[6]
*205 S4BEG[7]
*206 S4BEG[8]
*207 S4BEG[9]
*208 SS4BEG[0]
*209 SS4BEG[10]
*210 SS4BEG[11]
*211 SS4BEG[12]
*212 SS4BEG[13]
*213 SS4BEG[14]
*214 SS4BEG[15]
*215 SS4BEG[1]
*216 SS4BEG[2]
*217 SS4BEG[3]
*218 SS4BEG[4]
*219 SS4BEG[5]
*220 SS4BEG[6]
*221 SS4BEG[7]
*222 SS4BEG[8]
*223 SS4BEG[9]
*224 UserCLK
*225 UserCLKo
*228 Inst_A_IO_1_bidirectional_frame_config_pass\.Q
*229 Inst_B_IO_1_bidirectional_frame_config_pass\.Q
*230 Inst_N_IO_ConfigMem\.Inst_frame0_bit0\.Q
*231 Inst_N_IO_ConfigMem\.Inst_frame0_bit1\.Q
*232 Inst_N_IO_ConfigMem\.Inst_frame0_bit10\.Q
*233 Inst_N_IO_ConfigMem\.Inst_frame0_bit11\.Q
*234 Inst_N_IO_ConfigMem\.Inst_frame0_bit12\.Q
*235 Inst_N_IO_ConfigMem\.Inst_frame0_bit13\.Q
*236 Inst_N_IO_ConfigMem\.Inst_frame0_bit14\.Q
*237 Inst_N_IO_ConfigMem\.Inst_frame0_bit15\.Q
*238 Inst_N_IO_ConfigMem\.Inst_frame0_bit16\.Q
*239 Inst_N_IO_ConfigMem\.Inst_frame0_bit17\.Q
*240 Inst_N_IO_ConfigMem\.Inst_frame0_bit18\.Q
*241 Inst_N_IO_ConfigMem\.Inst_frame0_bit19\.Q
*242 Inst_N_IO_ConfigMem\.Inst_frame0_bit2\.Q
*243 Inst_N_IO_ConfigMem\.Inst_frame0_bit20\.Q
*244 Inst_N_IO_ConfigMem\.Inst_frame0_bit21\.Q
*245 Inst_N_IO_ConfigMem\.Inst_frame0_bit22\.Q
*246 Inst_N_IO_ConfigMem\.Inst_frame0_bit23\.Q
*247 Inst_N_IO_ConfigMem\.Inst_frame0_bit24\.Q
*248 Inst_N_IO_ConfigMem\.Inst_frame0_bit25\.Q
*249 Inst_N_IO_ConfigMem\.Inst_frame0_bit26\.Q
*250 Inst_N_IO_ConfigMem\.Inst_frame0_bit27\.Q
*251 Inst_N_IO_ConfigMem\.Inst_frame0_bit28\.Q
*252 Inst_N_IO_ConfigMem\.Inst_frame0_bit29\.Q
*253 Inst_N_IO_ConfigMem\.Inst_frame0_bit3\.Q
*254 Inst_N_IO_ConfigMem\.Inst_frame0_bit30\.Q
*255 Inst_N_IO_ConfigMem\.Inst_frame0_bit31\.Q
*256 Inst_N_IO_ConfigMem\.Inst_frame0_bit4\.Q
*257 Inst_N_IO_ConfigMem\.Inst_frame0_bit5\.Q
*258 Inst_N_IO_ConfigMem\.Inst_frame0_bit6\.Q
*259 Inst_N_IO_ConfigMem\.Inst_frame0_bit7\.Q
*260 Inst_N_IO_ConfigMem\.Inst_frame0_bit8\.Q
*261 Inst_N_IO_ConfigMem\.Inst_frame0_bit9\.Q
*262 Inst_N_IO_ConfigMem\.Inst_frame1_bit0\.Q
*263 Inst_N_IO_ConfigMem\.Inst_frame1_bit1\.Q
*264 Inst_N_IO_ConfigMem\.Inst_frame1_bit10\.Q
*265 Inst_N_IO_ConfigMem\.Inst_frame1_bit11\.Q
*266 Inst_N_IO_ConfigMem\.Inst_frame1_bit12\.Q
*267 Inst_N_IO_ConfigMem\.Inst_frame1_bit13\.Q
*268 Inst_N_IO_ConfigMem\.Inst_frame1_bit14\.Q
*269 Inst_N_IO_ConfigMem\.Inst_frame1_bit15\.Q
*270 Inst_N_IO_ConfigMem\.Inst_frame1_bit16\.Q
*271 Inst_N_IO_ConfigMem\.Inst_frame1_bit17\.Q
*272 Inst_N_IO_ConfigMem\.Inst_frame1_bit18\.Q
*273 Inst_N_IO_ConfigMem\.Inst_frame1_bit19\.Q
*274 Inst_N_IO_ConfigMem\.Inst_frame1_bit2\.Q
*275 Inst_N_IO_ConfigMem\.Inst_frame1_bit20\.Q
*276 Inst_N_IO_ConfigMem\.Inst_frame1_bit21\.Q
*277 Inst_N_IO_ConfigMem\.Inst_frame1_bit22\.Q
*278 Inst_N_IO_ConfigMem\.Inst_frame1_bit23\.Q
*279 Inst_N_IO_ConfigMem\.Inst_frame1_bit24\.Q
*280 Inst_N_IO_ConfigMem\.Inst_frame1_bit25\.Q
*281 Inst_N_IO_ConfigMem\.Inst_frame1_bit26\.Q
*282 Inst_N_IO_ConfigMem\.Inst_frame1_bit27\.Q
*283 Inst_N_IO_ConfigMem\.Inst_frame1_bit28\.Q
*284 Inst_N_IO_ConfigMem\.Inst_frame1_bit29\.Q
*285 Inst_N_IO_ConfigMem\.Inst_frame1_bit3\.Q
*286 Inst_N_IO_ConfigMem\.Inst_frame1_bit30\.Q
*287 Inst_N_IO_ConfigMem\.Inst_frame1_bit31\.Q
*288 Inst_N_IO_ConfigMem\.Inst_frame1_bit4\.Q
*289 Inst_N_IO_ConfigMem\.Inst_frame1_bit5\.Q
*290 Inst_N_IO_ConfigMem\.Inst_frame1_bit6\.Q
*291 Inst_N_IO_ConfigMem\.Inst_frame1_bit7\.Q
*292 Inst_N_IO_ConfigMem\.Inst_frame1_bit8\.Q
*293 Inst_N_IO_ConfigMem\.Inst_frame1_bit9\.Q
*294 Inst_N_IO_ConfigMem\.Inst_frame2_bit0\.Q
*295 Inst_N_IO_ConfigMem\.Inst_frame2_bit1\.Q
*296 Inst_N_IO_ConfigMem\.Inst_frame2_bit10\.Q
*297 Inst_N_IO_ConfigMem\.Inst_frame2_bit11\.Q
*298 Inst_N_IO_ConfigMem\.Inst_frame2_bit12\.Q
*299 Inst_N_IO_ConfigMem\.Inst_frame2_bit13\.Q
*300 Inst_N_IO_ConfigMem\.Inst_frame2_bit14\.Q
*301 Inst_N_IO_ConfigMem\.Inst_frame2_bit15\.Q
*302 Inst_N_IO_ConfigMem\.Inst_frame2_bit16\.Q
*303 Inst_N_IO_ConfigMem\.Inst_frame2_bit17\.Q
*304 Inst_N_IO_ConfigMem\.Inst_frame2_bit18\.Q
*305 Inst_N_IO_ConfigMem\.Inst_frame2_bit19\.Q
*306 Inst_N_IO_ConfigMem\.Inst_frame2_bit2\.Q
*307 Inst_N_IO_ConfigMem\.Inst_frame2_bit20\.Q
*308 Inst_N_IO_ConfigMem\.Inst_frame2_bit21\.Q
*309 Inst_N_IO_ConfigMem\.Inst_frame2_bit22\.Q
*310 Inst_N_IO_ConfigMem\.Inst_frame2_bit23\.Q
*311 Inst_N_IO_ConfigMem\.Inst_frame2_bit24\.Q
*312 Inst_N_IO_ConfigMem\.Inst_frame2_bit25\.Q
*313 Inst_N_IO_ConfigMem\.Inst_frame2_bit26\.Q
*314 Inst_N_IO_ConfigMem\.Inst_frame2_bit27\.Q
*315 Inst_N_IO_ConfigMem\.Inst_frame2_bit28\.Q
*316 Inst_N_IO_ConfigMem\.Inst_frame2_bit29\.Q
*317 Inst_N_IO_ConfigMem\.Inst_frame2_bit3\.Q
*318 Inst_N_IO_ConfigMem\.Inst_frame2_bit30\.Q
*319 Inst_N_IO_ConfigMem\.Inst_frame2_bit31\.Q
*320 Inst_N_IO_ConfigMem\.Inst_frame2_bit4\.Q
*321 Inst_N_IO_ConfigMem\.Inst_frame2_bit5\.Q
*322 Inst_N_IO_ConfigMem\.Inst_frame2_bit6\.Q
*323 Inst_N_IO_ConfigMem\.Inst_frame2_bit7\.Q
*324 Inst_N_IO_ConfigMem\.Inst_frame2_bit8\.Q
*325 Inst_N_IO_ConfigMem\.Inst_frame2_bit9\.Q
*326 Inst_N_IO_ConfigMem\.Inst_frame3_bit14\.Q
*327 Inst_N_IO_ConfigMem\.Inst_frame3_bit15\.Q
*328 Inst_N_IO_ConfigMem\.Inst_frame3_bit16\.Q
*329 Inst_N_IO_ConfigMem\.Inst_frame3_bit17\.Q
*330 Inst_N_IO_ConfigMem\.Inst_frame3_bit18\.Q
*331 Inst_N_IO_ConfigMem\.Inst_frame3_bit19\.Q
*332 Inst_N_IO_ConfigMem\.Inst_frame3_bit20\.Q
*333 Inst_N_IO_ConfigMem\.Inst_frame3_bit21\.Q
*334 Inst_N_IO_ConfigMem\.Inst_frame3_bit22\.Q
*335 Inst_N_IO_ConfigMem\.Inst_frame3_bit23\.Q
*336 Inst_N_IO_ConfigMem\.Inst_frame3_bit24\.Q
*337 Inst_N_IO_ConfigMem\.Inst_frame3_bit25\.Q
*338 Inst_N_IO_ConfigMem\.Inst_frame3_bit26\.Q
*339 Inst_N_IO_ConfigMem\.Inst_frame3_bit27\.Q
*340 Inst_N_IO_ConfigMem\.Inst_frame3_bit28\.Q
*341 Inst_N_IO_ConfigMem\.Inst_frame3_bit29\.Q
*342 Inst_N_IO_ConfigMem\.Inst_frame3_bit30\.Q
*343 Inst_N_IO_ConfigMem\.Inst_frame3_bit31\.Q
*344 Inst_N_IO_switch_matrix\.S1BEG0
*345 Inst_N_IO_switch_matrix\.S1BEG1
*346 Inst_N_IO_switch_matrix\.S1BEG2
*347 Inst_N_IO_switch_matrix\.S1BEG3
*348 Inst_N_IO_switch_matrix\.S2BEG0
*349 Inst_N_IO_switch_matrix\.S2BEG1
*350 Inst_N_IO_switch_matrix\.S2BEG2
*351 Inst_N_IO_switch_matrix\.S2BEG3
*352 Inst_N_IO_switch_matrix\.S2BEG4
*353 Inst_N_IO_switch_matrix\.S2BEG5
*354 Inst_N_IO_switch_matrix\.S2BEG6
*355 Inst_N_IO_switch_matrix\.S2BEG7
*356 Inst_N_IO_switch_matrix\.S2BEGb0
*357 Inst_N_IO_switch_matrix\.S2BEGb1
*358 Inst_N_IO_switch_matrix\.S2BEGb2
*359 Inst_N_IO_switch_matrix\.S2BEGb3
*360 Inst_N_IO_switch_matrix\.S2BEGb4
*361 Inst_N_IO_switch_matrix\.S2BEGb5
*362 Inst_N_IO_switch_matrix\.S2BEGb6
*363 Inst_N_IO_switch_matrix\.S2BEGb7
*364 Inst_N_IO_switch_matrix\.S4BEG0
*365 Inst_N_IO_switch_matrix\.S4BEG1
*366 Inst_N_IO_switch_matrix\.S4BEG10
*367 Inst_N_IO_switch_matrix\.S4BEG11
*368 Inst_N_IO_switch_matrix\.S4BEG12
*369 Inst_N_IO_switch_matrix\.S4BEG13
*370 Inst_N_IO_switch_matrix\.S4BEG14
*371 Inst_N_IO_switch_matrix\.S4BEG15
*372 Inst_N_IO_switch_matrix\.S4BEG2
*373 Inst_N_IO_switch_matrix\.S4BEG3
*374 Inst_N_IO_switch_matrix\.S4BEG4
*375 Inst_N_IO_switch_matrix\.S4BEG5
*376 Inst_N_IO_switch_matrix\.S4BEG6
*377 Inst_N_IO_switch_matrix\.S4BEG7
*378 Inst_N_IO_switch_matrix\.S4BEG8
*379 Inst_N_IO_switch_matrix\.S4BEG9
*380 Inst_N_IO_switch_matrix\.SS4BEG0
*381 Inst_N_IO_switch_matrix\.SS4BEG1
*382 Inst_N_IO_switch_matrix\.SS4BEG10
*383 Inst_N_IO_switch_matrix\.SS4BEG11
*384 Inst_N_IO_switch_matrix\.SS4BEG12
*385 Inst_N_IO_switch_matrix\.SS4BEG13
*386 Inst_N_IO_switch_matrix\.SS4BEG14
*387 Inst_N_IO_switch_matrix\.SS4BEG15
*388 Inst_N_IO_switch_matrix\.SS4BEG2
*389 Inst_N_IO_switch_matrix\.SS4BEG3
*390 Inst_N_IO_switch_matrix\.SS4BEG4
*391 Inst_N_IO_switch_matrix\.SS4BEG5
*392 Inst_N_IO_switch_matrix\.SS4BEG6
*393 Inst_N_IO_switch_matrix\.SS4BEG7
*394 Inst_N_IO_switch_matrix\.SS4BEG8
*395 Inst_N_IO_switch_matrix\.SS4BEG9
*396 UserCLK_regs
*397 _000_
*398 _001_
*399 _002_
*400 _003_
*401 _004_
*402 _005_
*403 _006_
*404 _007_
*405 _008_
*406 _009_
*407 _010_
*408 _011_
*409 _012_
*410 _013_
*411 _014_
*412 _015_
*413 _016_
*414 _017_
*415 _018_
*416 _019_
*417 _020_
*418 _021_
*419 _022_
*420 _023_
*421 _024_
*422 _025_
*423 _026_
*424 _027_
*425 _028_
*426 _029_
*427 _030_
*428 _031_
*429 clknet_0_UserCLK
*430 clknet_0_UserCLK_regs
*431 clknet_1_0__leaf_UserCLK
*432 clknet_1_0__leaf_UserCLK_regs
*433 clknet_1_1__leaf_UserCLK_regs
*434 net1
*435 net10
*436 net100
*437 net101
*438 net102
*439 net103
*440 net104
*441 net105
*442 net106
*443 net107
*444 net108
*445 net109
*446 net11
*447 net110
*448 net111
*449 net112
*450 net113
*451 net114
*452 net115
*453 net116
*454 net117
*455 net118
*456 net119
*457 net12
*458 net120
*459 net121
*460 net122
*461 net123
*462 net124
*463 net125
*464 net126
*465 net127
*466 net128
*467 net129
*468 net13
*469 net130
*470 net131
*471 net132
*472 net133
*473 net134
*474 net135
*475 net136
*476 net137
*477 net138
*478 net139
*479 net14
*480 net140
*481 net141
*482 net142
*483 net143
*484 net144
*485 net145
*486 net146
*487 net147
*488 net148
*489 net149
*490 net15
*491 net150
*492 net151
*493 net152
*494 net153
*495 net154
*496 net155
*497 net156
*498 net157
*499 net158
*500 net159
*501 net16
*502 net160
*503 net161
*504 net162
*505 net163
*506 net164
*507 net165
*508 net166
*509 net167
*510 net168
*511 net169
*512 net17
*513 net170
*514 net171
*515 net172
*516 net173
*517 net174
*518 net175
*519 net176
*520 net177
*521 net178
*522 net179
*523 net18
*524 net180
*525 net181
*526 net182
*527 net183
*528 net184
*529 net185
*530 net186
*531 net187
*532 net188
*533 net189
*534 net19
*535 net190
*536 net191
*537 net192
*538 net193
*539 net194
*540 net195
*541 net196
*542 net197
*543 net198
*544 net199
*545 net2
*546 net20
*547 net200
*548 net201
*549 net202
*550 net203
*551 net204
*552 net205
*553 net206
*554 net207
*555 net208
*556 net209
*557 net21
*558 net210
*559 net211
*560 net212
*561 net213
*562 net214
*563 net215
*564 net216
*565 net217
*566 net218
*567 net219
*568 net22
*569 net220
*570 net23
*571 net24
*572 net25
*573 net26
*574 net27
*575 net28
*576 net29
*577 net3
*578 net30
*579 net31
*580 net32
*581 net33
*582 net34
*583 net35
*584 net36
*585 net37
*586 net38
*587 net39
*588 net4
*589 net40
*590 net41
*591 net42
*592 net43
*593 net44
*594 net45
*595 net46
*596 net47
*597 net48
*598 net49
*599 net5
*600 net50
*601 net51
*602 net52
*603 net53
*604 net54
*605 net55
*606 net56
*607 net57
*608 net58
*609 net59
*610 net6
*611 net60
*612 net61
*613 net62
*614 net63
*615 net64
*616 net65
*617 net66
*618 net67
*619 net68
*620 net69
*621 net7
*622 net70
*623 net71
*624 net72
*625 net73
*626 net74
*627 net75
*628 net76
*629 net77
*630 net78
*631 net79
*632 net8
*633 net80
*634 net81
*635 net82
*636 net83
*637 net84
*638 net85
*639 net86
*640 net87
*641 net88
*642 net89
*643 net9
*644 net90
*645 net91
*646 net92
*647 net93
*648 net94
*649 net95
*650 net96
*651 net97
*652 net98
*653 net99
*654 ANTENNA_1
*655 ANTENNA_10
*656 ANTENNA_11
*657 ANTENNA_12
*658 ANTENNA_13
*659 ANTENNA_2
*660 ANTENNA_3
*661 ANTENNA_4
*662 ANTENNA_5
*663 ANTENNA_6
*664 ANTENNA_7
*665 ANTENNA_8
*666 ANTENNA_9
*667 FILLER_0_100
*668 FILLER_0_23
*669 FILLER_0_261
*670 FILLER_0_278
*671 FILLER_0_29
*672 FILLER_0_321
*673 FILLER_0_335
*674 FILLER_0_34
*675 FILLER_0_353
*676 FILLER_0_384
*677 FILLER_0_393
*678 FILLER_0_397
*679 FILLER_0_85
*680 FILLER_10_138
*681 FILLER_10_147
*682 FILLER_10_188
*683 FILLER_10_197
*684 FILLER_10_202
*685 FILLER_10_210
*686 FILLER_10_23
*687 FILLER_10_246
*688 FILLER_10_253
*689 FILLER_10_282
*690 FILLER_10_312
*691 FILLER_10_316
*692 FILLER_10_324
*693 FILLER_10_353
*694 FILLER_10_361
*695 FILLER_10_377
*696 FILLER_10_381
*697 FILLER_10_385
*698 FILLER_10_394
*699 FILLER_10_41
*700 FILLER_10_58
*701 FILLER_10_79
*702 FILLER_11_111
*703 FILLER_11_113
*704 FILLER_11_119
*705 FILLER_11_123
*706 FILLER_11_145
*707 FILLER_11_155
*708 FILLER_11_159
*709 FILLER_11_167
*710 FILLER_11_17
*711 FILLER_11_172
*712 FILLER_11_192
*713 FILLER_11_197
*714 FILLER_11_203
*715 FILLER_11_207
*716 FILLER_11_269
*717 FILLER_11_27
*718 FILLER_11_275
*719 FILLER_11_279
*720 FILLER_11_281
*721 FILLER_11_307
*722 FILLER_11_317
*723 FILLER_11_323
*724 FILLER_11_341
*725 FILLER_11_347
*726 FILLER_11_359
*727 FILLER_11_363
*728 FILLER_11_365
*729 FILLER_11_371
*730 FILLER_11_383
*731 FILLER_11_397
*732 FILLER_11_41
*733 FILLER_11_51
*734 FILLER_11_55
*735 FILLER_11_61
*736 FILLER_11_82
*737 FILLER_11_89
*738 FILLER_11_95
*739 FILLER_1_11
*740 FILLER_1_113
*741 FILLER_1_169
*742 FILLER_1_235
*743 FILLER_1_335
*744 FILLER_1_386
*745 FILLER_1_393
*746 FILLER_1_397
*747 FILLER_1_67
*748 FILLER_2_131
*749 FILLER_2_15
*750 FILLER_2_195
*751 FILLER_2_218
*752 FILLER_2_251
*753 FILLER_2_253
*754 FILLER_2_266
*755 FILLER_2_33
*756 FILLER_2_362
*757 FILLER_2_369
*758 FILLER_2_390
*759 FILLER_2_402
*760 FILLER_2_409
*761 FILLER_2_82
*762 FILLER_2_85
*763 FILLER_3_111
*764 FILLER_3_133
*765 FILLER_3_146
*766 FILLER_3_169
*767 FILLER_3_259
*768 FILLER_3_333
*769 FILLER_3_345
*770 FILLER_3_389
*771 FILLER_3_393
*772 FILLER_3_405
*773 FILLER_3_409
*774 FILLER_3_47
*775 FILLER_3_72
*776 FILLER_4_131
*777 FILLER_4_162
*778 FILLER_4_209
*779 FILLER_4_218
*780 FILLER_4_24
*781 FILLER_4_251
*782 FILLER_4_265
*783 FILLER_4_307
*784 FILLER_4_309
*785 FILLER_4_313
*786 FILLER_4_326
*787 FILLER_4_362
*788 FILLER_4_385
*789 FILLER_4_391
*790 FILLER_4_403
*791 FILLER_4_409
*792 FILLER_4_62
*793 FILLER_4_97
*794 FILLER_5_110
*795 FILLER_5_15
*796 FILLER_5_164
*797 FILLER_5_169
*798 FILLER_5_228
*799 FILLER_5_233
*800 FILLER_5_247
*801 FILLER_5_258
*802 FILLER_5_281
*803 FILLER_5_286
*804 FILLER_5_314
*805 FILLER_5_321
*806 FILLER_5_334
*807 FILLER_5_382
*808 FILLER_5_390
*809 FILLER_5_393
*810 FILLER_5_405
*811 FILLER_5_409
*812 FILLER_5_61
*813 FILLER_6_15
*814 FILLER_6_162
*815 FILLER_6_201
*816 FILLER_6_224
*817 FILLER_6_230
*818 FILLER_6_27
*819 FILLER_6_307
*820 FILLER_6_333
*821 FILLER_6_343
*822 FILLER_6_388
*823 FILLER_6_400
*824 FILLER_6_404
*825 FILLER_6_408
*826 FILLER_6_41
*827 FILLER_6_85
*828 FILLER_7_110
*829 FILLER_7_116
*830 FILLER_7_184
*831 FILLER_7_218
*832 FILLER_7_225
*833 FILLER_7_274
*834 FILLER_7_329
*835 FILLER_7_337
*836 FILLER_7_383
*837 FILLER_7_391
*838 FILLER_7_393
*839 FILLER_7_401
*840 FILLER_7_55
*841 FILLER_7_57
*842 FILLER_8_128
*843 FILLER_8_168
*844 FILLER_8_187
*845 FILLER_8_195
*846 FILLER_8_200
*847 FILLER_8_204
*848 FILLER_8_209
*849 FILLER_8_23
*850 FILLER_8_234
*851 FILLER_8_247
*852 FILLER_8_251
*853 FILLER_8_253
*854 FILLER_8_257
*855 FILLER_8_261
*856 FILLER_8_298
*857 FILLER_8_306
*858 FILLER_8_330
*859 FILLER_8_334
*860 FILLER_8_363
*861 FILLER_8_380
*862 FILLER_8_392
*863 FILLER_8_409
*864 FILLER_8_71
*865 FILLER_9_125
*866 FILLER_9_163
*867 FILLER_9_167
*868 FILLER_9_169
*869 FILLER_9_204
*870 FILLER_9_220
*871 FILLER_9_225
*872 FILLER_9_229
*873 FILLER_9_275
*874 FILLER_9_279
*875 FILLER_9_281
*876 FILLER_9_316
*877 FILLER_9_320
*878 FILLER_9_358
*879 FILLER_9_374
*880 FILLER_9_386
*881 FILLER_9_393
*882 FILLER_9_400
*883 FILLER_9_410
*884 FILLER_9_43
*885 FILLER_9_47
*886 FILLER_9_52
*887 FILLER_9_57
*888 FILLER_9_98
*889 PHY_EDGE_ROW_0_Left_12
*890 PHY_EDGE_ROW_0_Right_0
*891 PHY_EDGE_ROW_10_Left_22
*892 PHY_EDGE_ROW_10_Right_10
*893 PHY_EDGE_ROW_11_Left_23
*894 PHY_EDGE_ROW_11_Right_11
*895 PHY_EDGE_ROW_1_Left_13
*896 PHY_EDGE_ROW_1_Right_1
*897 PHY_EDGE_ROW_2_Left_14
*898 PHY_EDGE_ROW_2_Right_2
*899 PHY_EDGE_ROW_3_Left_15
*900 PHY_EDGE_ROW_3_Right_3
*901 PHY_EDGE_ROW_4_Left_16
*902 PHY_EDGE_ROW_4_Right_4
*903 PHY_EDGE_ROW_5_Left_17
*904 PHY_EDGE_ROW_5_Right_5
*905 PHY_EDGE_ROW_6_Left_18
*906 PHY_EDGE_ROW_6_Right_6
*907 PHY_EDGE_ROW_7_Left_19
*908 PHY_EDGE_ROW_7_Right_7
*909 PHY_EDGE_ROW_8_Left_20
*910 PHY_EDGE_ROW_8_Right_8
*911 PHY_EDGE_ROW_9_Left_21
*912 PHY_EDGE_ROW_9_Right_9
*913 TAP_TAPCELL_ROW_0_24
*914 TAP_TAPCELL_ROW_0_25
*915 TAP_TAPCELL_ROW_0_26
*916 TAP_TAPCELL_ROW_0_27
*917 TAP_TAPCELL_ROW_0_28
*918 TAP_TAPCELL_ROW_0_29
*919 TAP_TAPCELL_ROW_0_30
*920 TAP_TAPCELL_ROW_0_31
*921 TAP_TAPCELL_ROW_0_32
*922 TAP_TAPCELL_ROW_0_33
*923 TAP_TAPCELL_ROW_0_34
*924 TAP_TAPCELL_ROW_0_35
*925 TAP_TAPCELL_ROW_0_36
*926 TAP_TAPCELL_ROW_0_37
*927 TAP_TAPCELL_ROW_10_101
*928 TAP_TAPCELL_ROW_10_102
*929 TAP_TAPCELL_ROW_10_103
*930 TAP_TAPCELL_ROW_10_104
*931 TAP_TAPCELL_ROW_10_105
*932 TAP_TAPCELL_ROW_10_106
*933 TAP_TAPCELL_ROW_10_107
*934 TAP_TAPCELL_ROW_11_108
*935 TAP_TAPCELL_ROW_11_109
*936 TAP_TAPCELL_ROW_11_110
*937 TAP_TAPCELL_ROW_11_111
*938 TAP_TAPCELL_ROW_11_112
*939 TAP_TAPCELL_ROW_11_113
*940 TAP_TAPCELL_ROW_11_114
*941 TAP_TAPCELL_ROW_11_115
*942 TAP_TAPCELL_ROW_11_116
*943 TAP_TAPCELL_ROW_11_117
*944 TAP_TAPCELL_ROW_11_118
*945 TAP_TAPCELL_ROW_11_119
*946 TAP_TAPCELL_ROW_11_120
*947 TAP_TAPCELL_ROW_11_121
*948 TAP_TAPCELL_ROW_1_38
*949 TAP_TAPCELL_ROW_1_39
*950 TAP_TAPCELL_ROW_1_40
*951 TAP_TAPCELL_ROW_1_41
*952 TAP_TAPCELL_ROW_1_42
*953 TAP_TAPCELL_ROW_1_43
*954 TAP_TAPCELL_ROW_1_44
*955 TAP_TAPCELL_ROW_2_45
*956 TAP_TAPCELL_ROW_2_46
*957 TAP_TAPCELL_ROW_2_47
*958 TAP_TAPCELL_ROW_2_48
*959 TAP_TAPCELL_ROW_2_49
*960 TAP_TAPCELL_ROW_2_50
*961 TAP_TAPCELL_ROW_2_51
*962 TAP_TAPCELL_ROW_3_52
*963 TAP_TAPCELL_ROW_3_53
*964 TAP_TAPCELL_ROW_3_54
*965 TAP_TAPCELL_ROW_3_55
*966 TAP_TAPCELL_ROW_3_56
*967 TAP_TAPCELL_ROW_3_57
*968 TAP_TAPCELL_ROW_3_58
*969 TAP_TAPCELL_ROW_4_59
*970 TAP_TAPCELL_ROW_4_60
*971 TAP_TAPCELL_ROW_4_61
*972 TAP_TAPCELL_ROW_4_62
*973 TAP_TAPCELL_ROW_4_63
*974 TAP_TAPCELL_ROW_4_64
*975 TAP_TAPCELL_ROW_4_65
*976 TAP_TAPCELL_ROW_5_66
*977 TAP_TAPCELL_ROW_5_67
*978 TAP_TAPCELL_ROW_5_68
*979 TAP_TAPCELL_ROW_5_69
*980 TAP_TAPCELL_ROW_5_70
*981 TAP_TAPCELL_ROW_5_71
*982 TAP_TAPCELL_ROW_5_72
*983 TAP_TAPCELL_ROW_6_73
*984 TAP_TAPCELL_ROW_6_74
*985 TAP_TAPCELL_ROW_6_75
*986 TAP_TAPCELL_ROW_6_76
*987 TAP_TAPCELL_ROW_6_77
*988 TAP_TAPCELL_ROW_6_78
*989 TAP_TAPCELL_ROW_6_79
*990 TAP_TAPCELL_ROW_7_80
*991 TAP_TAPCELL_ROW_7_81
*992 TAP_TAPCELL_ROW_7_82
*993 TAP_TAPCELL_ROW_7_83
*994 TAP_TAPCELL_ROW_7_84
*995 TAP_TAPCELL_ROW_7_85
*996 TAP_TAPCELL_ROW_7_86
*997 TAP_TAPCELL_ROW_8_87
*998 TAP_TAPCELL_ROW_8_88
*999 TAP_TAPCELL_ROW_8_89
*1000 TAP_TAPCELL_ROW_8_90
*1001 TAP_TAPCELL_ROW_8_91
*1002 TAP_TAPCELL_ROW_8_92
*1003 TAP_TAPCELL_ROW_8_93
*1004 TAP_TAPCELL_ROW_9_100
*1005 TAP_TAPCELL_ROW_9_94
*1006 TAP_TAPCELL_ROW_9_95
*1007 TAP_TAPCELL_ROW_9_96
*1008 TAP_TAPCELL_ROW_9_97
*1009 TAP_TAPCELL_ROW_9_98
*1010 TAP_TAPCELL_ROW_9_99
*1011 _032_
*1012 _033_
*1013 _034_
*1014 _035_
*1015 _036_
*1016 _037_
*1017 _038_
*1018 _039_
*1019 _040_
*1020 _041_
*1021 _042_
*1022 _043_
*1023 _044_
*1024 _045_
*1025 _046_
*1026 _047_
*1027 _048_
*1028 _049_
*1029 _050_
*1030 _051_
*1031 _052_
*1032 _053_
*1033 _054_
*1034 _055_
*1035 _056_
*1036 _057_
*1037 _058_
*1038 _059_
*1039 _060_
*1040 _061_
*1041 _062_
*1042 _063_
*1043 _064_
*1044 _065_
*1045 _066_
*1046 _067_
*1047 _068_
*1048 _069_
*1049 _070_
*1050 _071_
*1051 _072_
*1052 _073_
*1053 _074_
*1054 _075_
*1055 _076_
*1056 _077_
*1057 _078_
*1058 _079_
*1059 _080_
*1060 _081_
*1061 _082_
*1062 _083_
*1063 _084_
*1064 _085_
*1065 _086_
*1066 _087_
*1067 _088_
*1068 _089_
*1069 _090_
*1070 _091_
*1071 _092_
*1072 _093_
*1073 _094_
*1074 _095_
*1075 _096_
*1076 _097_
*1077 _098_
*1078 _099_
*1079 _100_
*1080 _101_
*1081 _102_
*1082 _103_
*1083 _104_
*1084 _105_
*1085 _106_
*1086 _107_
*1087 _108_
*1088 _109_
*1089 _110_
*1090 _111_
*1091 _112_
*1092 _113_
*1093 _114_
*1094 _115_
*1095 _116_
*1096 _117_
*1097 _118_
*1098 _119_
*1099 _120_
*1100 _121_
*1101 _122_
*1102 _123_
*1103 _124_
*1104 _125_
*1105 _126_
*1106 _127_
*1107 _128_
*1108 _129_
*1109 _130_
*1110 _131_
*1111 _132_
*1112 _133_
*1113 _134_
*1114 _135_
*1115 _136_
*1116 _137_
*1117 _138_
*1118 _139_
*1119 _140_
*1120 _141_
*1121 _142_
*1122 _143_
*1123 _144_
*1124 _145_
*1125 _146_
*1126 _147_
*1127 _148_
*1128 _149_
*1129 _150_
*1130 _151_
*1131 _152_
*1132 _153_
*1133 _154_
*1134 _155_
*1135 _156_
*1136 _157_
*1137 _158_
*1138 _159_
*1139 _160_
*1140 _161_
*1141 _162_
*1142 _163_
*1143 _164_
*1144 _165_
*1145 _166_
*1146 _167_
*1147 _168_
*1148 _169_
*1149 _170_
*1150 _171_
*1151 _172_
*1152 _173_
*1153 _174_
*1154 _175_
*1155 _176_
*1156 _177_
*1157 _178_
*1158 _179_
*1159 _180_
*1160 _181_
*1161 _182_
*1162 _183_
*1163 _184_
*1164 _185_
*1165 _186_
*1166 _187_
*1167 _188_
*1168 _189_
*1169 _190_
*1170 _191_
*1171 _192_
*1172 _193_
*1173 _194_
*1174 _195_
*1175 _196_
*1176 _197_
*1177 _198_
*1178 _199_
*1179 _200_
*1180 _201_
*1181 _202_
*1182 _203_
*1183 _204_
*1184 _205_
*1185 _206_
*1186 _207_
*1187 _208_
*1188 _209_
*1189 _210_
*1190 _211_
*1191 _212_
*1192 _213_
*1193 _214_
*1194 _215_
*1195 _216_
*1196 _217_
*1197 _218_
*1198 _219_
*1199 _220_
*1200 _221_
*1201 _222_
*1202 _223_
*1203 _224_
*1204 _225_
*1205 _226_
*1206 _227_
*1207 _228_
*1208 _229_
*1209 _230_
*1210 _231_
*1211 _232_
*1212 _233_
*1213 _234_
*1214 _235_
*1215 _236_
*1216 _237_
*1217 _238_
*1218 _239_
*1219 _240_
*1220 _241_
*1221 _242_
*1222 _243_
*1223 _244_
*1224 _245_
*1225 _246_
*1226 _247_
*1227 _248_
*1228 _249_
*1229 _250_
*1230 _251_
*1231 _252_
*1232 _253_
*1233 _254_
*1234 _255_
*1235 _256_
*1236 _257_
*1237 _258_
*1238 _259_
*1239 _260_
*1240 _261_
*1241 _262_
*1242 _263_
*1243 _264_
*1244 _265_
*1245 _266_
*1246 _267_
*1247 _268_
*1248 _269_
*1249 _270_
*1250 _271_
*1251 _272_
*1252 _273_
*1253 _274_
*1254 _275_
*1255 _276_
*1256 _277_
*1257 _278_
*1258 _279_
*1259 _280_
*1260 _281_
*1261 _282_
*1262 _283_
*1263 _284_
*1264 _285_
*1265 _286_
*1266 _287_
*1267 _288_
*1268 _289_
*1269 _290_
*1270 _291_
*1271 _292_
*1272 _293_
*1273 _294_
*1274 _295_
*1275 _296_
*1276 _297_
*1277 _298_
*1278 _299_
*1279 _300_
*1280 _301_
*1281 _302_
*1282 _303_
*1283 _304_
*1284 _305_
*1285 _306_
*1286 _307_
*1287 _308_
*1288 _309_
*1289 _310_
*1290 _311_
*1291 _312_
*1292 _313_
*1293 _314_
*1294 _315_
*1295 _316_
*1296 _317_
*1297 _318_
*1298 _319_
*1299 _320_
*1300 _321_
*1301 _322_
*1302 _323_
*1303 _324_
*1304 _325_
*1305 _326_
*1306 _327_
*1307 _328_
*1308 _329_
*1309 _330_
*1310 _331_
*1311 _332_
*1312 _333_
*1313 _334_
*1314 _335_
*1315 _336_
*1316 _337_
*1317 _338_
*1318 _339_
*1319 _340_
*1320 _341_
*1321 _342_
*1322 _343_
*1323 _344_
*1324 _345_
*1325 _346_
*1326 _347_
*1327 _348_
*1328 clkbuf_0_UserCLK
*1329 clkbuf_0_UserCLK_regs
*1330 clkbuf_1_0__f_UserCLK
*1331 clkbuf_1_0__f_UserCLK_regs
*1332 clkbuf_1_1__f_UserCLK_regs
*1333 clkbuf_regs_0_UserCLK
*1334 fanout52
*1335 fanout53
*1336 fanout54
*1337 fanout55
*1338 fanout56
*1339 fanout57
*1340 fanout58
*1341 fanout59
*1342 fanout60
*1343 fanout61
*1344 fanout62
*1345 fanout63
*1346 fanout64
*1347 fanout65
*1348 fanout66
*1349 fanout67
*1350 fanout68
*1351 input1
*1352 input10
*1353 input11
*1354 input12
*1355 input13
*1356 input14
*1357 input15
*1358 input16
*1359 input17
*1360 input18
*1361 input19
*1362 input2
*1363 input20
*1364 input21
*1365 input22
*1366 input23
*1367 input24
*1368 input25
*1369 input26
*1370 input27
*1371 input28
*1372 input29
*1373 input3
*1374 input30
*1375 input31
*1376 input32
*1377 input33
*1378 input34
*1379 input35
*1380 input36
*1381 input37
*1382 input38
*1383 input39
*1384 input4
*1385 input40
*1386 input41
*1387 input42
*1388 input43
*1389 input44
*1390 input45
*1391 input46
*1392 input47
*1393 input48
*1394 input49
*1395 input5
*1396 input50
*1397 input51
*1398 input52
*1399 input53
*1400 input54
*1401 input55
*1402 input56
*1403 input57
*1404 input58
*1405 input59
*1406 input6
*1407 input60
*1408 input61
*1409 input62
*1410 input63
*1411 input64
*1412 input65
*1413 input66
*1414 input67
*1415 input68
*1416 input69
*1417 input7
*1418 input70
*1419 input71
*1420 input72
*1421 input73
*1422 input74
*1423 input75
*1424 input76
*1425 input77
*1426 input78
*1427 input79
*1428 input8
*1429 input80
*1430 input81
*1431 input82
*1432 input83
*1433 input84
*1434 input85
*1435 input86
*1436 input9
*1437 output100
*1438 output101
*1439 output102
*1440 output103
*1441 output104
*1442 output105
*1443 output106
*1444 output107
*1445 output108
*1446 output109
*1447 output110
*1448 output111
*1449 output112
*1450 output113
*1451 output114
*1452 output115
*1453 output116
*1454 output117
*1455 output118
*1456 output119
*1457 output120
*1458 output121
*1459 output122
*1460 output123
*1461 output124
*1462 output125
*1463 output126
*1464 output127
*1465 output128
*1466 output129
*1467 output130
*1468 output131
*1469 output132
*1470 output133
*1471 output134
*1472 output135
*1473 output136
*1474 output137
*1475 output138
*1476 output139
*1477 output140
*1478 output141
*1479 output142
*1480 output143
*1481 output144
*1482 output145
*1483 output146
*1484 output147
*1485 output148
*1486 output149
*1487 output150
*1488 output151
*1489 output152
*1490 output153
*1491 output154
*1492 output155
*1493 output156
*1494 output157
*1495 output158
*1496 output159
*1497 output160
*1498 output161
*1499 output162
*1500 output163
*1501 output164
*1502 output165
*1503 output166
*1504 output167
*1505 output168
*1506 output169
*1507 output170
*1508 output171
*1509 output172
*1510 output173
*1511 output174
*1512 output175
*1513 output176
*1514 output177
*1515 output178
*1516 output179
*1517 output180
*1518 output181
*1519 output182
*1520 output183
*1521 output184
*1522 output185
*1523 output186
*1524 output187
*1525 output188
*1526 output189
*1527 output190
*1528 output191
*1529 output192
*1530 output193
*1531 output194
*1532 output195
*1533 output196
*1534 output197
*1535 output198
*1536 output199
*1537 output200
*1538 output201
*1539 output202
*1540 output203
*1541 output87
*1542 output88
*1543 output89
*1544 output90
*1545 output91
*1546 output92
*1547 output93
*1548 output94
*1549 output95
*1550 output96
*1551 output97
*1552 output98
*1553 output99

*PORTS
A_I_top O
A_O_top I
A_T_top O
A_config_C_bit0 O
A_config_C_bit1 O
A_config_C_bit2 O
A_config_C_bit3 O
B_I_top O
B_O_top I
B_T_top O
B_config_C_bit0 O
B_config_C_bit1 O
B_config_C_bit2 O
B_config_C_bit3 O
Ci I
FrameData[0] I
FrameData[10] I
FrameData[11] I
FrameData[12] I
FrameData[13] I
FrameData[14] I
FrameData[15] I
FrameData[16] I
FrameData[17] I
FrameData[18] I
FrameData[19] I
FrameData[1] I
FrameData[20] I
FrameData[21] I
FrameData[22] I
FrameData[23] I
FrameData[24] I
FrameData[25] I
FrameData[26] I
FrameData[27] I
FrameData[28] I
FrameData[29] I
FrameData[2] I
FrameData[30] I
FrameData[31] I