*SPEF "ieee 1481-1999"
*DESIGN "S_term_IHP_SRAM"
*DATE "17:04:43 Thursday April 03, 2025"
*VENDOR "The OpenROAD Project"
*PROGRAM "OpenROAD"
*VERSION "87af90f72f3f9be1fdfa1d886f0dd8d8b8f34694"
*DESIGN_FLOW "NAME_SCOPE LOCAL" "PIN_CAP NONE"
*DIVIDER /
*DELIMITER :
*BUS_DELIMITER []
*T_UNIT 1 NS
*C_UNIT 1 PF
*R_UNIT 1 OHM
*L_UNIT 1 HENRY

*NAME_MAP
*1 FrameData[0]
*2 FrameData[10]
*3 FrameData[11]
*4 FrameData[12]
*5 FrameData[13]
*6 FrameData[14]
*7 FrameData[15]
*8 FrameData[16]
*9 FrameData[17]
*10 FrameData[18]
*11 FrameData[19]
*12 FrameData[1]
*13 FrameData[20]
*14 FrameData[21]
*15 FrameData[22]
*16 FrameData[23]
*17 FrameData[24]
*18 FrameData[25]
*19 FrameData[26]
*20 FrameData[27]
*21 FrameData[28]
*22 FrameData[29]
*23 FrameData[2]
*24 FrameData[30]
*25 FrameData[31]
*26 FrameData[3]
*27 FrameData[4]
*28 FrameData[5]
*29 FrameData[6]
*30 FrameData[7]
*31 FrameData[8]
*32 FrameData[9]
*33 FrameData_O[0]
*34 FrameData_O[10]
*35 FrameData_O[11]
*36 FrameData_O[12]
*37 FrameData_O[13]
*38 FrameData_O[14]
*39 FrameData_O[15]
*40 FrameData_O[16]
*41 FrameData_O[17]
*42 FrameData_O[18]
*43 FrameData_O[19]
*44 FrameData_O[1]
*45 FrameData_O[20]
*46 FrameData_O[21]
*47 FrameData_O[22]
*48 FrameData_O[23]
*49 FrameData_O[24]
*50 FrameData_O[25]
*51 FrameData_O[26]
*52 FrameData_O[27]
*53 FrameData_O[28]
*54 FrameData_O[29]
*55 FrameData_O[2]
*56 FrameData_O[30]
*57 FrameData_O[31]
*58 FrameData_O[3]
*59 FrameData_O[4]
*60 FrameData_O[5]
*61 FrameData_O[6]
*62 FrameData_O[7]
*63 FrameData_O[8]
*64 FrameData_O[9]
*65 FrameStrobe[0]
*66 FrameStrobe[10]
*67 FrameStrobe[11]
*68 FrameStrobe[12]
*69 FrameStrobe[13]
*70 FrameStrobe[14]
*71 FrameStrobe[15]
*72 FrameStrobe[16]
*73 FrameStrobe[17]
*74 FrameStrobe[18]
*75 FrameStrobe[19]
*76 FrameStrobe[1]
*77 FrameStrobe[2]
*78 FrameStrobe[3]
*79 FrameStrobe[4]
*80 FrameStrobe[5]
*81 FrameStrobe[6]
*82 FrameStrobe[7]
*83 FrameStrobe[8]
*84 FrameStrobe[9]
*85 FrameStrobe_O[0]
*86 FrameStrobe_O[10]
*87 FrameStrobe_O[11]
*88 FrameStrobe_O[12]
*89 FrameStrobe_O[13]
*90 FrameStrobe_O[14]
*91 FrameStrobe_O[15]
*92 FrameStrobe_O[16]
*93 FrameStrobe_O[17]
*94 FrameStrobe_O[18]
*95 FrameStrobe_O[19]
*96 FrameStrobe_O[1]
*97 FrameStrobe_O[2]
*98 FrameStrobe_O[3]
*99 FrameStrobe_O[4]
*100 FrameStrobe_O[5]
*101 FrameStrobe_O[6]
*102 FrameStrobe_O[7]
*103 FrameStrobe_O[8]
*104 FrameStrobe_O[9]
*105 N1BEG[0]
*106 N1BEG[1]
*107 N1BEG[2]
*108 N1BEG[3]
*109 N2BEG[0]
*110 N2BEG[1]
*111 N2BEG[2]
*112 N2BEG[3]
*113 N2BEG[4]
*114 N2BEG[5]
*115 N2BEG[6]
*116 N2BEG[7]
*117 N2BEGb[0]
*118 N2BEGb[1]
*119 N2BEGb[2]
*120 N2BEGb[3]
*121 N2BEGb[4]
*122 N2BEGb[5]
*123 N2BEGb[6]
*124 N2BEGb[7]
*125 N4BEG[0]
*126 N4BEG[10]
*127 N4BEG[11]
*128 N4BEG[12]
*129 N4BEG[13]
*130 N4BEG[14]
*131 N4BEG[15]
*132 N4BEG[1]
*133 N4BEG[2]
*134 N4BEG[3]
*135 N4BEG[4]
*136 N4BEG[5]
*137 N4BEG[6]
*138 N4BEG[7]
*139 N4BEG[8]
*140 N4BEG[9]
*141 S1END[0]
*142 S1END[1]
*143 S1END[2]
*144 S1END[3]
*145 S2END[0]
*146 S2END[1]
*147 S2END[2]
*148 S2END[3]
*149 S2END[4]
*150 S2END[5]
*151 S2END[6]
*152 S2END[7]
*153 S2MID[0]
*154 S2MID[1]
*155 S2MID[2]
*156 S2MID[3]
*157 S2MID[4]
*158 S2MID[5]
*159 S2MID[6]
*160 S2MID[7]
*161 S4END[0]
*162 S4END[10]
*163 S4END[11]
*164 S4END[12]
*165 S4END[13]
*166 S4END[14]
*167 S4END[15]
*168 S4END[1]
*169 S4END[2]
*170 S4END[3]
*171 S4END[4]
*172 S4END[5]
*173 S4END[6]
*174 S4END[7]
*175 S4END[8]
*176 S4END[9]
*177 UserCLK
*178 UserCLKo
*181 net1
*182 net10
*183 net11
*184 net12
*185 net13
*186 net14
*187 net15
*188 net16
*189 net17
*190 net18
*191 net19
*192 net2
*193 net20
*194 net21
*195 net22
*196 net23
*197 net24
*198 net25
*199 net26
*200 net27
*201 net28
*202 net29
*203 net3
*204 net30
*205 net31
*206 net32
*207 net33
*208 net34
*209 net35
*210 net36
*211 net37
*212 net38
*213 net39
*214 net4
*215 net40
*216 net41
*217 net42
*218 net43
*219 net44
*220 net45
*221 net46
*222 net47
*223 net48
*224 net49
*225 net5
*226 net50
*227 net51
*228 net52
*229 net53
*230 net54
*231 net55
*232 net56
*233 net57
*234 net58
*235 net59
*236 net6
*237 net60
*238 net61
*239 net62
*240 net63
*241 net64
*242 net65
*243 net66
*244 net67
*245 net68
*246 net69
*247 net7
*248 net70
*249 net71
*250 net72
*251 net73
*252 net74
*253 net75
*254 net76
*255 net77
*256 net78
*257 net79
*258 net8
*259 net80
*260 net81
*261 net82
*262 net83
*263 net84
*264 net85
*265 net86
*266 net87
*267 net88
*268 net89
*269 net9
*270 FILLER_0_0
*271 FILLER_0_105
*272 FILLER_0_112
*273 FILLER_0_119
*274 FILLER_0_121
*275 FILLER_0_126
*276 FILLER_0_133
*277 FILLER_0_14
*278 FILLER_0_140
*279 FILLER_0_151
*280 FILLER_0_158
*281 FILLER_0_165
*282 FILLER_0_172
*283 FILLER_0_182
*284 FILLER_0_184
*285 FILLER_0_21
*286 FILLER_0_28
*287 FILLER_0_35
*288 FILLER_0_42
*289 FILLER_0_49
*290 FILLER_0_56
*291 FILLER_0_63
*292 FILLER_0_7
*293 FILLER_0_70
*294 FILLER_0_77
*295 FILLER_0_84
*296 FILLER_0_91
*297 FILLER_0_98
*298 FILLER_10_0
*299 FILLER_10_106
*300 FILLER_10_110
*301 FILLER_10_115
*302 FILLER_10_119
*303 FILLER_10_125
*304 FILLER_10_132
*305 FILLER_10_143
*306 FILLER_10_200
*307 FILLER_10_85
*308 FILLER_10_92
*309 FILLER_10_99
*310 FILLER_1_0
*311 FILLER_1_102
*312 FILLER_1_109
*313 FILLER_1_116
*314 FILLER_1_123
*315 FILLER_1_130
*316 FILLER_1_137
*317 FILLER_1_14
*318 FILLER_1_144
*319 FILLER_1_151
*320 FILLER_1_158
*321 FILLER_1_165
*322 FILLER_1_170
*323 FILLER_1_174
*324 FILLER_1_180
*325 FILLER_1_21
*326 FILLER_1_28
*327 FILLER_1_35
*328 FILLER_1_42
*329 FILLER_1_49
*330 FILLER_1_60
*331 FILLER_1_67
*332 FILLER_1_7
*333 FILLER_1_74
*334 FILLER_1_81
*335 FILLER_1_88
*336 FILLER_1_95
*337 FILLER_2_0
*338 FILLER_2_103
*339 FILLER_2_11
*340 FILLER_2_110
*341 FILLER_2_112
*342 FILLER_2_117
*343 FILLER_2_124
*344 FILLER_2_126
*345 FILLER_2_135
*346 FILLER_2_142
*347 FILLER_2_147
*348 FILLER_2_154
*349 FILLER_2_158
*350 FILLER_2_168
*351 FILLER_2_175
*352 FILLER_2_18
*353 FILLER_2_182
*354 FILLER_2_25
*355 FILLER_2_32
*356 FILLER_2_39
*357 FILLER_2_46
*358 FILLER_2_57
*359 FILLER_2_64
*360 FILLER_2_71
*361 FILLER_2_75
*362 FILLER_2_84
*363 FILLER_2_95
*364 FILLER_3_0
*365 FILLER_3_102
*366 FILLER_3_109
*367 FILLER_3_115
*368 FILLER_3_122
*369 FILLER_3_129
*370 FILLER_3_136
*371 FILLER_3_14
*372 FILLER_3_143
*373 FILLER_3_149
*374 FILLER_3_156
*375 FILLER_3_163
*376 FILLER_3_170
*377 FILLER_3_177
*378 FILLER_3_181
*379 FILLER_3_195
*380 FILLER_3_21
*381 FILLER_3_32
*382 FILLER_3_39
*383 FILLER_3_46
*384 FILLER_3_53
*385 FILLER_3_60
*386 FILLER_3_67
*387 FILLER_3_7
*388 FILLER_3_74
*389 FILLER_3_81
*390 FILLER_3_88
*391 FILLER_3_95
*392 FILLER_4_0
*393 FILLER_4_104
*394 FILLER_4_111
*395 FILLER_4_118
*396 FILLER_4_125
*397 FILLER_4_129
*398 FILLER_4_135
*399 FILLER_4_14
*400 FILLER_4_142
*401 FILLER_4_149
*402 FILLER_4_153
*403 FILLER_4_158
*404 FILLER_4_165
*405 FILLER_4_172
*406 FILLER_4_179
*407 FILLER_4_181
*408 FILLER_4_190
*409 FILLER_4_192
*410 FILLER_4_21
*411 FILLER_4_25
*412 FILLER_4_30
*413 FILLER_4_37
*414 FILLER_4_45
*415 FILLER_4_52
*416 FILLER_4_56
*417 FILLER_4_65
*418 FILLER_4_7
*419 FILLER_4_71
*420 FILLER_4_76
*421 FILLER_4_83
*422 FILLER_4_90
*423 FILLER_4_97
*424 FILLER_5_0
*425 FILLER_5_106
*426 FILLER_5_117
*427 FILLER_5_124
*428 FILLER_5_131
*429 FILLER_5_138
*430 FILLER_5_14
*431 FILLER_5_142
*432 FILLER_5_147
*433 FILLER_5_154
*434 FILLER_5_161
*435 FILLER_5_168
*436 FILLER_5_179
*437 FILLER_5_191
*438 FILLER_5_25
*439 FILLER_5_32
*440 FILLER_5_34
*441 FILLER_5_39
*442 FILLER_5_50
*443 FILLER_5_57
*444 FILLER_5_64
*445 FILLER_5_7
*446 FILLER_5_71
*447 FILLER_5_73
*448 FILLER_5_78
*449 FILLER_5_82
*450 FILLER_5_88
*451 FILLER_5_95
*452 FILLER_5_97
*453 FILLER_6_0
*454 FILLER_6_101
*455 FILLER_6_108
*456 FILLER_6_115
*457 FILLER_6_119
*458 FILLER_6_128
*459 FILLER_6_135
*460 FILLER_6_139
*461 FILLER_6_14
*462 FILLER_6_144
*463 FILLER_6_151
*464 FILLER_6_158
*465 FILLER_6_165
*466 FILLER_6_172
*467 FILLER_6_195
*468 FILLER_6_21
*469 FILLER_6_26
*470 FILLER_6_37
*471 FILLER_6_44
*472 FILLER_6_51
*473 FILLER_6_58
*474 FILLER_6_65
*475 FILLER_6_7
*476 FILLER_6_72
*477 FILLER_6_79
*478 FILLER_6_87
*479 FILLER_6_94
*480 FILLER_7_0
*481 FILLER_7_106
*482 FILLER_7_110
*483 FILLER_7_119
*484 FILLER_7_12
*485 FILLER_7_126
*486 FILLER_7_128
*487 FILLER_7_137
*488 FILLER_7_144
*489 FILLER_7_152
*490 FILLER_7_154
*491 FILLER_7_159
*492 FILLER_7_169
*493 FILLER_7_19
*494 FILLER_7_194
*495 FILLER_7_196
*496 FILLER_7_26
*497 FILLER_7_37
*498 FILLER_7_41
*499 FILLER_7_50
*500 FILLER_7_57
*501 FILLER_7_64
*502 FILLER_7_7
*503 FILLER_7_71
*504 FILLER_7_78
*505 FILLER_7_85
*506 FILLER_7_89
*507 FILLER_7_99
*508 FILLER_8_0
*509 FILLER_8_106
*510 FILLER_8_113
*511 FILLER_8_120
*512 FILLER_8_127
*513 FILLER_8_13
*514 FILLER_8_134
*515 FILLER_8_141
*516 FILLER_8_148
*517 FILLER_8_155
*518 FILLER_8_20
*519 FILLER_8_27
*520 FILLER_8_34
*521 FILLER_8_41
*522 FILLER_8_48
*523 FILLER_8_55
*524 FILLER_8_62
*525 FILLER_8_69
*526 FILLER_8_7
*527 FILLER_8_76
*528 FILLER_8_83
*529 FILLER_8_90
*530 FILLER_8_99
*531 FILLER_9_104
*532 FILLER_9_111
*533 FILLER_9_118
*534 FILLER_9_125
*535 FILLER_9_130
*536 FILLER_9_137
*537 FILLER_9_144
*538 FILLER_9_151
*539 FILLER_9_20
*540 FILLER_9_200
*541 FILLER_9_69
*542 FILLER_9_76
*543 FILLER_9_83
*544 FILLER_9_90
*545 FILLER_9_97
*546 _00_
*547 _01_
*548 _02_
*549 _03_
*550 _04_
*551 _05_
*552 _06_
*553 _07_
*554 _08_
*555 _09_
*556 _10_
*557 _11_
*558 _12_
*559 _13_
*560 _14_
*561 _15_
*562 _16_
*563 _17_
*564 _18_
*565 _19_
*566 _20_
*567 _21_
*568 _22_
*569 _23_
*570 _24_
*571 _25_
*572 _26_
*573 _27_
*574 _28_
*575 _29_
*576 _30_
*577 _31_
*578 _32_
*579 _33_
*580 _34_
*581 _35_
*582 _36_
*583 _37_
*584 _38_
*585 _39_
*586 _40_
*587 _41_
*588 _42_
*589 _43_
*590 _44_
*591 _45_
*592 _46_
*593 _47_
*594 _48_
*595 _49_
*596 _50_
*597 _51_
*598 _52_
*599 _53_
*600 _54_
*601 _55_
*602 _56_
*603 _57_
*604 _58_
*605 _59_
*606 _60_
*607 _61_
*608 _62_
*609 _63_
*610 _64_
*611 _65_
*612 _66_
*613 _67_
*614 _68_
*615 _69_
*616 _70_
*617 _71_
*618 _72_
*619 _73_
*620 _74_
*621 _75_
*622 _76_
*623 _77_
*624 _78_
*625 _79_
*626 _80_
*627 _81_
*628 _82_
*629 _83_
*630 _84_
*631 _85_
*632 _86_
*633 _87_
*634 _88_
*635 output1
*636 output10
*637 output11
*638 output12
*639 output13
*640 output14
*641 output15
*642 output16
*643 output17
*644 output18
*645 output19
*646 output2
*647 output20
*648 output21
*649 output22
*650 output23
*651 output24
*652 output25
*653 output26
*654 output27
*655 output28
*656 output29
*657 output3
*658 output30
*659 output31
*660 output32
*661 output33
*662 output34
*663 output35
*664 output36
*665 output37
*666 output38
*667 output39
*668 output4
*669 output40
*670 output41
*671 output42
*672 output43
*673 output44
*674 output45
*675 output46
*676 output47
*677 output48
*678 output49
*679 output5
*680 output50
*681 output51
*682 output52
*683 output53
*684 output54
*685 output55
*686 output56
*687 output57
*688 output58
*689 output59
*690 output6
*691 output60
*692 output61
*693 output62
*694 output63
*695 output64
*696 output65
*697 output66
*698 output67
*699 output68
*700 output69
*701 output7
*702 output70
*703 output71
*704 output72
*705 output73
*706 output74
*707 output75
*708 output76
*709 output77
*710 output78
*711 output79
*712 output8
*713 output80
*714 output81
*715 output82
*716 output83
*717 output84
*718 output85
*719 output86
*720 output87
*721 output88
*722 output89
*723 output9

*PORTS
FrameData[0] I
FrameData[10] I
FrameData[11] I
FrameData[12] I
FrameData[13] I
FrameData[14] I
FrameData[15] I
FrameData[16] I
FrameData[17] I
FrameData[18] I
FrameData[19] I
FrameData[1] I
FrameData[20] I
FrameData[21] I
FrameData[22] I
FrameData[23] I
FrameData[24] I
FrameData[25] I
FrameData[26] I
FrameData[27] I
FrameData[28] I
FrameData[29] I
FrameData[2] I
FrameData[30] I
FrameData[31] I
FrameData[3] I
FrameData[4] I
FrameData[5] I
FrameData[6] I
FrameData[7] I
FrameData[8] I
FrameData[9] I
FrameData_O[0] O
FrameData_O[10] O
FrameData_O[11] O
FrameData_O[12] O
FrameData_O[13] O
FrameData_O[14] O
FrameData_O[15] O
FrameData_O[16] O
FrameData_O[17] O
FrameData_O[18] O
FrameData_O[19] O
FrameData_O[1] O
FrameData_O[20] O
FrameData_O[21] O
FrameData_O[22] O
FrameData_O[23] O
FrameData_O[24] O
FrameData_O[25] O
FrameData_O[26] O
FrameData_O[27] O
FrameData_O[28] O
FrameData_O[29] O
FrameData_O[2] O
FrameData_O[30] O
FrameData_O[31] O
FrameData_O[3] O
FrameData_O[4] O
FrameData_O[5] O
FrameData_O[6] O
FrameData_O[7] O
FrameData_O[8] O
FrameData_O[9] O
FrameStrobe[0] I
FrameStrobe[10] I
FrameStrobe[11] I
FrameStrobe[12] I
FrameStrobe[13] I
FrameStrobe[14] I
FrameStrobe[15] I
FrameStrobe[16] I
FrameStrobe[17] I
FrameStrobe[18] I
FrameStrobe[19] I
FrameStrobe[1] I
FrameStrobe[2] I
FrameStrobe[3] I
FrameStrobe[4] I
FrameStrobe[5] I
FrameStrobe[6] I
FrameStrobe[7] I
FrameStrobe[8] I
FrameStrobe[9] I
FrameStrobe_O[0] O
FrameStrobe_O[10] O
FrameStrobe_O[11] O
FrameStrobe_O[12] O
FrameStrobe_O[13] O
FrameStrobe_O[14] O
FrameStrobe_O[15] O
FrameStrobe_O[16] O
FrameStrobe_O[17] O
FrameStrobe_O[18] O
FrameStrobe_O[19] O
FrameStrobe_O[1] O
FrameStrobe_O[2] O
FrameStrobe_O[3] O
FrameStrobe_O[4] O
FrameStrobe_O[5] O
FrameStrobe_O[6] O
FrameStrobe_O[7] O
FrameStrobe_O[8] O
FrameStrobe_O[9] O
N1BEG[0] O
N1BEG[1] O
N1BEG[2] O
N1BEG[3] O
N2BEG[0] O
N2BEG[1] O
N2BEG[2] O
N2BEG[3] O
N2BEG[4] O
N2BEG[5] O
N2BEG[6] O
N2BEG[7] O
N2BEGb[0] O
N2BEGb[1] O
N2BEGb[2] O
N2BEGb[3] O
N2BEGb[4] O
N2BEGb[5] O
N2BEGb[6] O
N2BEGb[7] O
N4BEG[0] O
N4BEG[10] O
N4BEG[11] O
N4BEG[12] O
N4BEG[13] O
N4BEG[14] O
N4BEG[15] O
N4BEG[1] O
N4BEG[2] O
N4BEG[3] O
N4BEG[4] O
N4BEG[5] O
N4BEG[6] O
N4BEG[7] O
N4BEG[8] O
N4BEG[9] O
S1END[0] I
S1END[1] I
S1END[2] I
S1END[3] I
S2END[0] I
S2END[1] I
S2END[2] I
S2END[3] I
S2END[4] I
S2END[5] I
S2END[6] I
S2END[7] I
S2MID[0] I
S2MID[1] I
S2MID[2] I
S2MID[3] I
S2MID[4] I
S2MID[5] I
S2MID[6] I
S2MID[7] I
S4END[0] I
S4END[10] I
S4END[11] I
S4END[12] I
S4END[13] I
S4END[14] I
S4END[15] I
S4END[1] I
S4END[2] I
S4END[3] I
S4END[4] I
S4END[5] I
S4END[6] I
S4END[7] I
S4END[8] I
S4END[9] I
UserCLK I
UserCLKo O

*D_NET *1 0.00529681
*CONN
*P FrameData[0] I
*I *546:A I *D sg13g2_buf_1
*CAP
1 FrameData[0] 0.0026484
2 *546:A 0
3 *1:9 0.0026484
4 *1:9 *584:A 0
5 *1:9 *585:A 0
6 *1:9 *12:11 0
*RES
1 FrameData[0] *1:9 49.3936 
2 *1:9 *546:A 40 
*END

*D_NET *2 0.0189581
*CONN
*P FrameData[10] I
*I *556:A I *D sg13g2_buf_1
*CAP
1 FrameData[10] 0.000880346
2 *556:A 0
3 *2:13 0.00342367
4 *2:7 0.00430402
5 *2:7 *3:7 0
6 *2:7 *15:17 2.21361e-05
7 *2:7 *32:13 0
8 *2:13 *646:A 0
9 *2:13 *15:17 0
10 *2:13 *17:17 0
11 *2:13 *26:17 0.00661871
12 *2:13 *32:13 0.000336792
13 *2:13 *187:12 0
14 *2:13 *203:8 0
15 *2:13 *207:28 0
16 *2:13 *213:10 0
17 *2:13 *225:12 0
18 *2:13 *226:14 0.00337242
19 *2:13 *226:24 0
*RES
1 FrameData[10] *2:7 7.67093 
2 *2:7 *2:13 44.0943 
3 *2:13 *556:A 20 
*END

*D_NET *3 0.0165471
*CONN
*P FrameData[11] I
*I *557:A I *D sg13g2_buf_1
*CAP
1 FrameData[11] 0.00125939
2 *557:A 0
3 *3:17 6.44384e-05
4 *3:11 0.00214962
5 *3:7 0.00334457
6 *3:7 *610:A 0
7 *3:7 *4:7 0
8 *3:7 *15:17 0.0014585
9 *3:7 *17:15 0.00108618
10 *3:7 *17:17 0
11 *3:7 *32:17 0.00342153
12 *3:7 *240:24 0.00203805
13 *3:7 *263:18 0.00172487
14 *3:11 *15:27 0
15 *3:11 *152:9 0
16 *3:11 *222:14 0
17 *3:17 *213:22 0
18 *3:17 *217:16 0
19 *2:7 *3:7 0
*RES
1 FrameData[11] *3:7 45.8916 
2 *3:7 *3:11 42.5982 
3 *3:11 *3:17 40.5356 
4 *3:17 *557:A 20 
*END

*D_NET *4 0.0181644
*CONN
*P FrameData[12] I
*I *558:A I *D sg13g2_buf_1
*CAP
1 FrameData[12] 0.000814916
2 *558:A 0
3 *4:11 0.0032165
4 *4:7 0.00403141
5 *4:7 *5:13 0
6 *4:7 *17:15 0
7 *4:7 *17:17 0
8 *4:7 *177:9 0
9 *4:11 *611:A 0.000234643
10 *4:11 *668:A 0.000206588
11 *4:11 *5:13 0.000500788
12 *4:11 *17:17 0
13 *4:11 *79:9 0.000393387
14 *4:11 *153:9 0.000660789
15 *4:11 *154:11 0
16 *4:11 *177:9 0.000499427
17 *4:11 *211:16 0
18 *4:11 *225:12 0
19 *4:11 *239:10 4.8786e-05
20 *4:11 *241:10 4.8786e-05
21 *4:11 *243:8 0
22 *4:11 *247:18 0.000604454
23 *4:11 *258:26 0
24 *4:11 *268:6 0.00690392
25 *3:7 *4:7 0
*RES
1 FrameData[12] *4:7 8.10353 
2 *4:7 *4:11 42.6935 
3 *4:11 *558:A 20 
*END

*D_NET *5 0.0142103
*CONN
*P FrameData[13] I
*I *559:A I *D sg13g2_buf_1
*CAP
1 FrameData[13] 0.00258948
2 *559:A 0
3 *5:13 0.00258948
4 *5:13 *611:A 0
5 *5:13 *6:13 0
6 *5:13 *13:17 0.0049095
7 *5:13 *13:23 0
8 *5:13 *154:11 0.00103239
9 *5:13 *155:13 0
10 *5:13 *177:9 0
11 *5:13 *206:12 0.00116469
12 *5:13 *211:16 0
13 *5:13 *236:8 0
14 *5:13 *240:10 4.8613e-05
15 *5:13 *243:8 0.00137531
16 *4:7 *5:13 0
17 *4:11 *5:13 0.000500788
*RES
1 FrameData[13] *5:13 36.8096 
2 *5:13 *559:A 20 
*END

*D_NET *6 0.0108155
*CONN
*P FrameData[14] I
*I *560:A I *D sg13g2_buf_1
*CAP
1 FrameData[14] 0.00162999
2 *560:A 0
3 *6:13 0.00162999
4 *6:13 *605:A 0
5 *6:13 *7:11 0
6 *6:13 *8:15 0
7 *6:13 *13:17 0.00180782
8 *6:13 *155:13 0.00134217
9 *6:13 *157:21 0.00193734
10 *6:13 *158:19 0
11 *6:13 *238:8 0.00113335
12 *6:13 *239:16 0.00133482
13 *5:13 *6:13 0
*RES
1 FrameData[14] *6:13 45.0882 
2 *6:13 *560:A 40 
*END

*D_NET *7 0.0152882
*CONN
*P FrameData[15] I
*I *561:A I *D sg13g2_buf_1
*CAP
1 FrameData[15] 0.000677094
2 *561:A 0
3 *7:15 0.00240375
4 *7:11 0.00308084
5 *7:11 *8:15 0
6 *7:11 *14:11 0
7 *7:11 *16:11 0
8 *7:11 *159:23 0
9 *7:15 *10:9 0
10 *7:15 *11:23 0
11 *7:15 *14:19 0
12 *7:15 *76:9 0.000234226
13 *7:15 *78:13 0.000234415
14 *7:15 *149:13 0.00129722
15 *7:15 *169:17 7.53965e-05
16 *7:15 *172:17 7.53965e-05
17 *7:15 *219:10 0.00392326
18 *7:15 *245:8 0.00196248
19 *7:15 *255:8 0.00132417
20 *6:13 *7:11 0
*RES
1 FrameData[15] *7:11 45.5709 
2 *7:11 *7:15 34.2887 
3 *7:15 *561:A 20 
*END

*D_NET *8 0.0152449
*CONN
*P FrameData[16] I
*I *562:A I *D sg13g2_buf_1
*CAP
1 FrameData[16] 0.00210361
2 *562:A 0.000751326
3 *8:27 0.000814992
4 *8:21 0.00105421
5 *8:15 0.00309415
6 *562:A *674:A 4.63397e-05
7 *562:A *220:26 0
8 *562:A *223:28 0.000355535
9 *562:A *255:16 0.000871181
10 *562:A *257:16 0.00129544
11 *8:15 *9:9 0
12 *8:15 *14:19 0
13 *8:15 *150:15 0
14 *8:15 *157:21 0
15 *8:15 *159:17 0
16 *8:15 *159:23 0.0023553
17 *8:15 *244:10 0
18 *8:15 *261:14 0.000819886
19 *8:21 *10:9 0
20 *8:21 *20:17 0.000343149
21 *8:21 *25:17 0.000343279
22 *8:21 *141:17 0.000918463
23 *8:21 *143:15 0
24 *8:21 *220:10 0
25 *8:21 *221:14 0
26 *8:21 *241:10 0
27 *8:27 *143:9 7.80453e-05
28 *8:27 *153:9 0
29 *6:13 *8:15 0
30 *7:11 *8:15 0
*RES
1 FrameData[16] *8:15 43.2445 
2 *8:15 *8:21 30.9901 
3 *8:21 *8:27 40.5356 
4 *8:27 *562:A 30.0322 
*END

*D_NET *9 0.012299
*CONN
*P FrameData[17] I
*I *563:A I *D sg13g2_buf_1
*CAP
1 FrameData[17] 0.000369241
2 *563:A 0
3 *9:29 9.05899e-05
4 *9:19 0.00103097
5 *9:11 0.00517378
6 *9:9 0.00460263
7 *9:9 *10:9 0
8 *9:11 *16:17 0
9 *9:11 *159:9 0
10 *9:11 *161:9 0
11 *9:11 *164:13 0
12 *9:11 *175:13 0
13 *9:11 *216:16 0
14 *9:11 *241:16 0
15 *9:11 *256:14 0
16 *9:11 *260:22 0
17 *9:19 *228:32 0.000862831
18 *9:29 *50:14 0
19 *9:29 *93:12 4.65023e-05
20 *9:29 *166:25 7.51291e-05
21 *9:29 *208:22 0
22 *9:29 *228:38 4.73023e-05
23 *8:15 *9:9 0
*RES
1 FrameData[17] *9:9 43.6436 
2 *9:9 *9:11 46.0822 
3 *9:11 *9:19 46.5096 
4 *9:19 *9:29 40.9888 
5 *9:29 *563:A 20 
*END

*D_NET *10 0.0188184
*CONN
*P FrameData[18] I
*I *564:A I *D sg13g2_buf_1
*CAP
1 FrameData[18] 0.00201858
2 *564:A 0
3 *10:19 0.000819363
4 *10:13 0.00147364
5 *10:9 0.00267286
6 *10:9 *11:17 0
7 *10:9 *11:23 0.00246443
8 *10:9 *77:23 0
9 *10:9 *78:13 0
10 *10:9 *153:9 0
11 *10:9 *221:14 7.87407e-05
12 *10:9 *248:10 0
13 *10:9 *252:10 0.00103198
14 *10:13 *14:19 0.00312378
15 *10:13 *261:14 0.00315841
16 *10:19 *162:11 0.000142324
17 *10:19 *162:17 0
18 *10:19 *163:11 0.00120569
19 *10:19 *176:21 0.000628598
20 *10:19 *219:16 0
21 *10:19 *265:24 0
22 *10:19 *267:10 0
23 *7:15 *10:9 0
24 *8:21 *10:9 0
25 *9:9 *10:9 0
*RES
1 FrameData[18] *10:9 44.5423 
2 *10:9 *10:13 34.6878 
3 *10:13 *10:19 48.9713 
4 *10:19 *564:A 20 
*END

*D_NET *11 0.0200937
*CONN
*P FrameData[19] I
*I *565:A I *D sg13g2_buf_1
*CAP
1 FrameData[19] 0.00129768
2 *565:A 0
3 *11:35 0.000405723
4 *11:23 0.00277045
5 *11:19 0.00236472
6 *11:17 0.00129768
7 *11:17 *697:A 0.000175979
8 *11:17 *13:11 0
9 *11:17 *14:11 0
10 *11:17 *77:23 0
11 *11:17 *234:10 4.8786e-05
12 *11:17 *239:26 0
13 *11:23 *14:19 0
14 *11:23 *49:16 0
15 *11:23 *78:13 0.000181233
16 *11:23 *149:13 0.00129699
17 *11:23 *169:17 7.51688e-05
18 *11:23 *172:9 0.000287636
19 *11:23 *172:17 7.51684e-05
20 *11:23 *245:8 0.00196225
21 *11:23 *247:8 0.00185341
22 *11:23 *252:10 0.00158901
23 *11:23 *260:12 0
24 *11:23 *264:16 0.00161466
25 *11:35 *670:A 9.00609e-05
26 *11:35 *48:10 0
27 *11:35 *51:10 0
28 *11:35 *93:12 0
29 *11:35 *217:16 0.000242641
30 *7:15 *11:23 0
31 *10:9 *11:17 0
32 *10:9 *11:23 0.00246443
*RES
1 FrameData[19] *11:17 33.5831 
2 *11:17 *11:19 20 
3 *11:19 *11:23 36.2663 
4 *11:23 *11:35 43.8728 
5 *11:35 *565:A 20 
*END

*D_NET *12 0.0167611
*CONN
*P FrameData[1] I
*I *547:A I *D sg13g2_buf_1
*CAP
1 FrameData[1] 0.000595512
2 *547:A 0
3 *12:19 0.000140294
4 *12:13 0.00324552
5 *12:11 0.00370074
6 *12:11 *578:A 0
7 *12:11 *23:11 0.000341064
8 *12:11 *177:9 0
9 *12:13 *27:9 0
10 *12:13 *31:19 0.00873798
11 *12:13 *72:11 0
12 *12:19 *71:11 0
13 *1:9 *12:11 0
*RES
1 FrameData[1] *12:11 46.0356 
2 *12:11 *12:13 40.6438 
3 *12:13 *12:19 41.4008 
4 *12:19 *547:A 20 
*END

*D_NET *13 0.0237429
*CONN
*P FrameData[20] I
*I *566:A I *D sg13g2_buf_1
*CAP
1 FrameData[20] 0.000670823
2 *566:A 0
3 *13:23 0.00163578
4 *13:17 0.00277799
5 *13:11 0.00181303
6 *13:11 *14:11 0
7 *13:11 *15:9 0
8 *13:11 *17:9 0
9 *13:17 *153:9 0.000208035
10 *13:17 *155:13 0.0014049
11 *13:17 *239:16 0.00134883
12 *13:23 *32:25 0.000606248
13 *13:23 *67:11 0
14 *13:23 *69:9 0.00135036
15 *13:23 *150:15 0.00145737
16 *13:23 *162:25 0.00124392
17 *13:23 *165:13 0.00203944
18 *13:23 *206:12 0
19 *13:23 *211:10 0.000420217
20 *13:23 *216:10 4.8613e-05
21 *13:23 *221:18 0
22 *13:23 *236:8 0
23 *13:23 *263:6 0
24 *5:13 *13:17 0.0049095
25 *5:13 *13:23 0
26 *6:13 *13:17 0.00180782
27 *11:17 *13:11 0
*RES
1 FrameData[20] *13:11 46.9293 
2 *13:11 *13:17 44.2462 
3 *13:17 *13:23 44.6479 
4 *13:23 *566:A 20 
*END

*D_NET *14 0.0196866
*CONN
*P FrameData[21] I
*I *567:A I *D sg13g2_buf_1
*CAP
1 FrameData[21] 0.000751297
2 *567:A 0
3 *14:19 0.00393283
4 *14:11 0.00468413
5 *14:11 *15:9 0
6 *14:11 *16:11 0
7 *14:11 *159:23 0
8 *14:11 *234:10 0
9 *14:19 *643:A 0.000181129
10 *14:19 *49:16 1.49483e-05
11 *14:19 *159:17 0.000916393
12 *14:19 *159:23 0
13 *14:19 *163:11 0.0016678
14 *14:19 *191:14 0.000125658
15 *14:19 *219:10 0.00177617
16 *14:19 *221:6 0.00227913
17 *14:19 *261:10 0.000233288
18 *14:19 *261:14 0
19 *7:11 *14:11 0
20 *7:15 *14:19 0
21 *8:15 *14:19 0
22 *10:13 *14:19 0.00312378
23 *11:17 *14:11 0
24 *11:23 *14:19 0
25 *13:11 *14:11 0
*RES
1 FrameData[21] *14:11 47.3928 
2 *14:11 *14:19 47.2564 
3 *14:19 *567:A 20 
*END

*D_NET *15 0.0143051
*CONN
*P FrameData[22] I
*I *568:A I *D sg13g2_buf_1
*CAP
1 FrameData[22] 0.000945358
2 *568:A 0
3 *15:27 0.00117278
4 *15:21 0.00117278
5 *15:17 0.00208397
6 *15:9 0.00302932
7 *15:9 *16:11 0
8 *15:9 *17:9 0
9 *15:17 *610:A 0.00331814
10 *15:17 *226:14 0.000500937
11 *15:17 *242:8 0.000207051
12 *15:27 *73:15 0
13 *15:27 *152:9 0.000394158
14 *15:27 *226:24 0
15 *2:7 *15:17 2.21361e-05
16 *2:13 *15:17 0
17 *3:7 *15:17 0.0014585
18 *3:11 *15:27 0
19 *13:11 *15:9 0
20 *14:11 *15:9 0
*RES
1 FrameData[22] *15:9 30.5137 
2 *15:9 *15:17 45.956 
3 *15:17 *15:21 40 
4 *15:21 *15:27 33.5239 
5 *15:27 *568:A 40 
*END

*D_NET *16 0.013748
*CONN
*P FrameData[23] I
*I *569:A I *D sg13g2_buf_1
*CAP
1 FrameData[23] 0.00104029
2 *569:A 0
3 *16:21 0
4 *16:17 0.00449334
5 *16:11 0.00553363
6 *16:11 *17:9 0
7 *16:11 *234:10 0
8 *16:17 *158:9 0.00268074
9 *16:17 *159:9 0
10 *16:17 *216:16 0
11 *16:17 *236:12 0
12 *7:11 *16:11 0
13 *9:11 *16:17 0
14 *14:11 *16:11 0
15 *15:9 *16:11 0
*RES
1 FrameData[23] *16:11 49.7103 
2 *16:11 *16:17 47.4933 
3 *16:17 *16:21 40 
4 *16:21 *569:A 20 
*END

*D_NET *17 0.01787
*CONN
*P FrameData[24] I
*I *570:A I *D sg13g2_buf_1
*CAP
1 FrameData[24] 0.00131621
2 *570:A 0
3 *17:23 0.000151457
4 *17:17 0.00242155
5 *17:15 0.00264987
6 *17:9 0.00169599
7 *17:9 *18:9 0
8 *17:9 *177:9 0.000242864
9 *17:9 *234:10 0
10 *17:17 *151:19 0.00236352
11 *17:17 *187:12 0
12 *17:17 *222:10 0
13 *17:17 *225:12 0
14 *17:17 *226:14 0
15 *17:17 *240:18 0
16 *17:17 *240:24 0.00203759
17 *17:17 *263:18 0.00390478
18 *17:17 *268:6 0
19 *17:23 *207:32 0
20 *17:23 *226:32 0
21 *2:13 *17:17 0
22 *3:7 *17:15 0.00108618
23 *3:7 *17:17 0
24 *4:7 *17:15 0
25 *4:7 *17:17 0
26 *4:11 *17:17 0
27 *13:11 *17:9 0
28 *15:9 *17:9 0
29 *16:11 *17:9 0
*RES
1 FrameData[24] *17:9 33.5419 
2 *17:9 *17:15 25.3663 
3 *17:15 *17:17 33.9694 
4 *17:17 *17:23 41.4008 
5 *17:23 *570:A 20 
*END

*D_NET *18 0.0200058
*CONN
*P FrameData[25] I
*I *571:A I *D sg13g2_buf_1
*CAP
1 FrameData[25] 0.000949313
2 *571:A 0
3 *18:19 3.96288e-05
4 *18:13 0.00130343
5 *18:11 0.00126381
6 *18:9 0.000949313
7 *18:9 N1BEG[0] 0.000207844
8 *18:9 N2BEG[3] 4.8613e-05
9 *18:9 N2BEG[5] 4.8613e-05
10 *18:9 N2BEG[7] 0.000147962
11 *18:9 N2BEGb[1] 4.66158e-05
12 *18:9 *599:A 0
13 *18:9 *602:A 0
14 *18:9 *683:A 0
15 *18:9 *19:11 0
16 *18:9 *20:13 0
17 *18:9 *231:18 0.00145391
18 *18:9 *232:18 0
19 *18:9 *233:10 0.000101645
20 *18:13 *22:13 0.00669889
21 *18:13 *24:13 0.00669968
22 *18:19 *211:26 4.65023e-05
23 *17:9 *18:9 0
*RES
1 FrameData[25] *18:9 31.5643 
2 *18:9 *18:11 20 
3 *18:11 *18:13 31.003 
4 *18:13 *18:19 40.3193 
5 *18:19 *571:A 20 
*END

*D_NET *19 0.0117526
*CONN
*P FrameData[26] I
*I *572:A I *D sg13g2_buf_1
*CAP
1 FrameData[26] 0.000565673
2 *572:A 0.00182919
3 *19:15 0.00182919
4 *19:11 0.000565673
5 *572:A N2BEG[0] 0
6 *572:A N2BEGb[2] 0
7 *572:A N2BEGb[4] 0.000127783
8 *572:A N4BEG[0] 0
9 *572:A N4BEG[10] 0
10 *572:A N4BEG[11] 0
11 *572:A N4BEG[12] 0
12 *572:A N4BEG[6] 0
13 *572:A *687:A 0.000287448
14 *572:A *698:A 0.000392698
15 *572:A *705:A 0
16 *572:A *144:9 0
17 *572:A *220:26 6.86902e-05
18 *572:A *232:18 0
19 *572:A *235:16 0.000340897
20 *572:A *246:14 0.00331275
21 *572:A *254:16 0.00209228
22 *572:A *262:32 0.000340291
23 *19:11 *20:13 0
24 *19:11 *22:13 0
25 *19:11 *25:15 0
26 *18:9 *19:11 0
*RES
1 FrameData[26] *19:11 45.477 
2 *19:11 *19:15 40 
3 *19:15 *572:A 45.853 
*END

*D_NET *20 0.0118722
*CONN
*P FrameData[27] I
*I *573:A I *D sg13g2_buf_1
*CAP
1 FrameData[27] 0.00123013
2 *573:A 0
3 *20:23 3.88484e-05
4 *20:17 0.00339755
5 *20:15 0.00335871
6 *20:13 0.00123013
7 *20:13 N1BEG[3] 0.000234226
8 *20:13 N2BEG[1] 0.000128161
9 *20:13 N2BEG[2] 0
10 *20:13 N2BEG[4] 7.98691e-05
11 *20:13 N2BEG[5] 0.000174411
12 *20:13 *21:11 0
13 *20:13 *232:18 0
14 *20:13 *238:16 0
15 *20:13 *244:16 1.54007e-05
16 *20:17 *21:13 0
17 *20:17 *25:17 0
18 *20:17 *219:24 0.00114473
19 *20:17 *262:22 0.000450467
20 *20:17 *266:14 0
21 *20:23 *251:24 4.63959e-05
22 *8:21 *20:17 0.000343149
23 *18:9 *20:13 0
24 *19:11 *20:13 0
*RES
1 FrameData[27] *20:13 30.6579 
2 *20:13 *20:15 20 
3 *20:15 *20:17 31.9918 
4 *20:17 *20:23 40.3193 
5 *20:23 *573:A 20 
*END

*D_NET *21 0.0163952
*CONN
*P FrameData[28] I
*I *574:A I *D sg13g2_buf_1
*CAP
1 FrameData[28] 0.00106228
2 *574:A 0
3 *21:21 0.000113496
4 *21:13 0.00284761
5 *21:11 0.00379639
6 *21:11 N2BEG[0] 0.000176893
7 *21:11 N2BEG[1] 0.000112425
8 *21:11 N2BEG[2] 0
9 *21:11 N2BEG[3] 0
10 *21:11 *22:11 0
11 *21:11 *24:11 0
12 *21:11 *144:9 0.000234226
13 *21:11 *144:17 0
14 *21:11 *233:10 0.000144552
15 *21:11 *235:16 0
16 *21:13 *22:13 0.00770713
17 *21:13 *25:15 0
18 *21:13 *25:17 0
19 *21:13 *262:22 0
20 *21:13 *266:14 0
21 *21:21 FrameStrobe_O[4] 1.50728e-05
22 *21:21 *649:A 7.51688e-05
23 *21:21 *190:14 0
24 *21:21 *268:10 0.000109979
25 *20:13 *21:11 0
26 *20:17 *21:13 0
*RES
1 FrameData[28] *21:11 49.1209 
2 *21:11 *21:13 35.6998 
3 *21:13 *21:21 41.1021 
4 *21:21 *574:A 20 
*END

*D_NET *22 0.0214478
*CONN
*P FrameData[29] I
*I *575:A I *D sg13g2_buf_1
*CAP
1 FrameData[29] 0.000415626
2 *575:A 0
3 *22:19 5.19969e-05
4 *22:13 0.0027662
5 *22:11 0.00312983
6 *22:11 *24:11 0
7 *22:11 *25:11 0.000340141
8 *22:13 *24:13 0
9 *22:13 *25:15 0
10 *22:13 *182:20 0
11 *22:13 *195:18 0.000182368
12 *22:13 *226:40 0
13 *22:19 *52:14 7.78254e-05
14 *22:19 *53:20 7.78254e-05
15 *18:13 *22:13 0.00669889
16 *19:11 *22:13 0
17 *21:11 *22:11 0
18 *21:13 *22:13 0.00770713
*RES
1 FrameData[29] *22:11 44.6736 
2 *22:11 *22:13 45.5878 
3 *22:13 *22:19 40.5356 
4 *22:19 *575:A 20 
*END

*D_NET *23 0.0127455
*CONN
*P FrameData[2] I
*I *548:A I *D sg13g2_buf_1
*CAP
1 FrameData[2] 0.000800773
2 *548:A 0
3 *23:15 0.00340452
4 *23:11 0.00420529
5 *23:11 *578:A 0
6 *23:11 *26:11 0.000762785
7 *23:11 *177:9 0
8 *23:15 *578:A 7.51684e-05
9 *23:15 *585:A 0.00012839
10 *23:15 *26:17 0
11 *23:15 *30:17 0
12 *23:15 *66:13 0.000288241
13 *23:15 *71:11 0
14 *23:15 *80:9 0.000288053
15 *23:15 *83:11 0
16 *23:15 *84:15 0.000714049
17 *23:15 *181:6 0
18 *23:15 *207:12 0
19 *23:15 *208:8 4.8747e-05
20 *23:15 *213:10 0.00052717
21 *23:15 *223:10 0
22 *23:15 *223:16 0
23 *23:15 *226:10 4.8786e-05
24 *23:15 *227:10 0.00111245
25 *12:11 *23:11 0.000341064
*RES
1 FrameData[2] *23:11 49.3395 
2 *23:11 *23:15 35.5247 
3 *23:15 *548:A 20 
*END

*D_NET *24 0.0175908
*CONN
*P FrameData[30] I
*I *576:A I *D sg13g2_buf_1
*CAP
1 FrameData[30] 0.000678387
2 *576:A 0
3 *24:17 0
4 *24:13 0.00335256
5 *24:11 0.00403095
6 *24:11 *25:11 0
7 *24:11 *231:18 0
8 *24:13 *182:20 0
9 *24:13 *195:18 0.000182497
10 *24:13 *208:14 0.00264675
11 *24:13 *210:14 0
12 *18:13 *24:13 0.00669968
13 *21:11 *24:11 0
14 *22:11 *24:11 0
15 *22:13 *24:13 0
*RES
1 FrameData[30] *24:11 46.3178 
2 *24:11 *24:13 45.5878 
3 *24:13 *24:17 40 
4 *24:17 *576:A 20 
*END

*D_NET *25 0.0147319
*CONN
*P FrameData[31] I
*I *577:A I *D sg13g2_buf_1
*CAP
1 FrameData[31] 0.000437055
2 *577:A 0
3 *25:23 3.59925e-05
4 *25:17 0.00449176
5 *25:15 0.00512785
6 *25:11 0.00110914
7 *25:17 N4BEG[14] 0.000342765
8 *25:17 *156:9 0
9 *25:17 *211:26 0
10 *25:17 *219:24 0.0018409
11 *25:17 *227:28 0.000662994
12 *25:23 FrameData_O[30] 0
13 *25:23 *92:10 0
14 *8:21 *25:17 0.000343279