*SPEF "ieee 1481-1999"
*DESIGN "E_IO"
*DATE "11:08:43 Monday March 10, 2025"
*VENDOR "The OpenROAD Project"
*PROGRAM "OpenROAD"
*VERSION "87af90f72f3f9be1fdfa1d886f0dd8d8b8f34694"
*DESIGN_FLOW "NAME_SCOPE LOCAL" "PIN_CAP NONE"
*DIVIDER /
*DELIMITER :
*BUS_DELIMITER []
*T_UNIT 1 NS
*C_UNIT 1 PF
*R_UNIT 1 OHM
*L_UNIT 1 HENRY

*NAME_MAP
*1 A_I_top
*2 A_O_top
*3 A_T_top
*4 A_config_C_bit0
*5 A_config_C_bit1
*6 A_config_C_bit2
*7 A_config_C_bit3
*8 B_I_top
*9 B_O_top
*10 B_T_top
*11 B_config_C_bit0
*12 B_config_C_bit1
*13 B_config_C_bit2
*14 B_config_C_bit3
*15 E1END[0]
*16 E1END[1]
*17 E1END[2]
*18 E1END[3]
*19 E2END[0]
*20 E2END[1]
*21 E2END[2]
*22 E2END[3]
*23 E2END[4]
*24 E2END[5]
*25 E2END[6]
*26 E2END[7]
*27 E2MID[0]
*28 E2MID[1]
*29 E2MID[2]
*30 E2MID[3]
*31 E2MID[4]
*32 E2MID[5]
*33 E2MID[6]
*34 E2MID[7]
*35 E6END[0]
*36 E6END[10]
*37 E6END[11]
*38 E6END[1]
*39 E6END[2]
*40 E6END[3]
*41 E6END[4]
*42 E6END[5]
*43 E6END[6]
*44 E6END[7]
*45 E6END[8]
*46 E6END[9]
*47 EE4END[0]
*48 EE4END[10]
*49 EE4END[11]
*50 EE4END[12]
*51 EE4END[13]
*52 EE4END[14]
*53 EE4END[15]
*54 EE4END[1]
*55 EE4END[2]
*56 EE4END[3]
*57 EE4END[4]
*58 EE4END[5]
*59 EE4END[6]
*60 EE4END[7]
*61 EE4END[8]
*62 EE4END[9]
*63 FrameData[0]
*64 FrameData[10]
*65 FrameData[11]
*66 FrameData[12]
*67 FrameData[13]
*68 FrameData[14]
*69 FrameData[15]
*70 FrameData[16]
*71 FrameData[17]
*72 FrameData[18]
*73 FrameData[19]
*74 FrameData[1]
*75 FrameData[20]
*76 FrameData[21]
*77 FrameData[22]
*78 FrameData[23]
*79 FrameData[24]
*80 FrameData[25]
*81 FrameData[26]
*82 FrameData[27]
*83 FrameData[28]
*84 FrameData[29]
*85 FrameData[2]
*86 FrameData[30]
*87 FrameData[31]
*88 FrameData[3]
*89 FrameData[4]
*90 FrameData[5]
*91 FrameData[6]
*92 FrameData[7]
*93 FrameData[8]
*94 FrameData[9]
*95 FrameData_O[0]
*96 FrameData_O[10]
*97 FrameData_O[11]
*98 FrameData_O[12]
*99 FrameData_O[13]
*100 FrameData_O[14]
*101 FrameData_O[15]
*102 FrameData_O[16]
*103 FrameData_O[17]
*104 FrameData_O[18]
*105 FrameData_O[19]
*106 FrameData_O[1]
*107 FrameData_O[20]
*108 FrameData_O[21]
*109 FrameData_O[22]
*110 FrameData_O[23]
*111 FrameData_O[24]
*112 FrameData_O[25]
*113 FrameData_O[26]
*114 FrameData_O[27]
*115 FrameData_O[28]
*116 FrameData_O[29]
*117 FrameData_O[2]
*118 FrameData_O[30]
*119 FrameData_O[31]
*120 FrameData_O[3]
*121 FrameData_O[4]
*122 FrameData_O[5]
*123 FrameData_O[6]
*124 FrameData_O[7]
*125 FrameData_O[8]
*126 FrameData_O[9]
*127 FrameStrobe[0]
*128 FrameStrobe[10]
*129 FrameStrobe[11]
*130 FrameStrobe[12]
*131 FrameStrobe[13]
*132 FrameStrobe[14]
*133 FrameStrobe[15]
*134 FrameStrobe[16]
*135 FrameStrobe[17]
*136 FrameStrobe[18]
*137 FrameStrobe[19]
*138 FrameStrobe[1]
*139 FrameStrobe[2]
*140 FrameStrobe[3]
*141 FrameStrobe[4]
*142 FrameStrobe[5]
*143 FrameStrobe[6]
*144 FrameStrobe[7]
*145 FrameStrobe[8]
*146 FrameStrobe[9]
*147 FrameStrobe_O[0]
*148 FrameStrobe_O[10]
*149 FrameStrobe_O[11]
*150 FrameStrobe_O[12]
*151 FrameStrobe_O[13]
*152 FrameStrobe_O[14]
*153 FrameStrobe_O[15]
*154 FrameStrobe_O[16]
*155 FrameStrobe_O[17]
*156 FrameStrobe_O[18]
*157 FrameStrobe_O[19]
*158 FrameStrobe_O[1]
*159 FrameStrobe_O[2]
*160 FrameStrobe_O[3]
*161 FrameStrobe_O[4]
*162 FrameStrobe_O[5]
*163 FrameStrobe_O[6]
*164 FrameStrobe_O[7]
*165 FrameStrobe_O[8]
*166 FrameStrobe_O[9]
*167 UserCLK
*168 UserCLKo
*171 W1BEG[0]
*172 W1BEG[1]
*173 W1BEG[2]
*174 W1BEG[3]
*175 W2BEG[0]
*176 W2BEG[1]
*177 W2BEG[2]
*178 W2BEG[3]
*179 W2BEG[4]
*180 W2BEG[5]
*181 W2BEG[6]
*182 W2BEG[7]
*183 W2BEGb[0]
*184 W2BEGb[1]
*185 W2BEGb[2]
*186 W2BEGb[3]
*187 W2BEGb[4]
*188 W2BEGb[5]
*189 W2BEGb[6]
*190 W2BEGb[7]
*191 W6BEG[0]
*192 W6BEG[10]
*193 W6BEG[11]
*194 W6BEG[1]
*195 W6BEG[2]
*196 W6BEG[3]
*197 W6BEG[4]
*198 W6BEG[5]
*199 W6BEG[6]
*200 W6BEG[7]
*201 W6BEG[8]
*202 W6BEG[9]
*203 WW4BEG[0]
*204 WW4BEG[10]
*205 WW4BEG[11]
*206 WW4BEG[12]
*207 WW4BEG[13]
*208 WW4BEG[14]
*209 WW4BEG[15]
*210 WW4BEG[1]
*211 WW4BEG[2]
*212 WW4BEG[3]
*213 WW4BEG[4]
*214 WW4BEG[5]
*215 WW4BEG[6]
*216 WW4BEG[7]
*217 WW4BEG[8]
*218 WW4BEG[9]
*219 Inst_A_IO_1_bidirectional_frame_config_pass\.Q
*220 Inst_B_IO_1_bidirectional_frame_config_pass\.Q
*221 Inst_E_IO_ConfigMem\.Inst_frame0_bit0\.Q
*222 Inst_E_IO_ConfigMem\.Inst_frame0_bit1\.Q
*223 Inst_E_IO_ConfigMem\.Inst_frame0_bit10\.Q
*224 Inst_E_IO_ConfigMem\.Inst_frame0_bit11\.Q
*225 Inst_E_IO_ConfigMem\.Inst_frame0_bit12\.Q
*226 Inst_E_IO_ConfigMem\.Inst_frame0_bit13\.Q
*227 Inst_E_IO_ConfigMem\.Inst_frame0_bit14\.Q
*228 Inst_E_IO_ConfigMem\.Inst_frame0_bit15\.Q
*229 Inst_E_IO_ConfigMem\.Inst_frame0_bit16\.Q
*230 Inst_E_IO_ConfigMem\.Inst_frame0_bit17\.Q
*231 Inst_E_IO_ConfigMem\.Inst_frame0_bit18\.Q
*232 Inst_E_IO_ConfigMem\.Inst_frame0_bit19\.Q
*233 Inst_E_IO_ConfigMem\.Inst_frame0_bit2\.Q
*234 Inst_E_IO_ConfigMem\.Inst_frame0_bit20\.Q
*235 Inst_E_IO_ConfigMem\.Inst_frame0_bit21\.Q
*236 Inst_E_IO_ConfigMem\.Inst_frame0_bit22\.Q
*237 Inst_E_IO_ConfigMem\.Inst_frame0_bit23\.Q
*238 Inst_E_IO_ConfigMem\.Inst_frame0_bit24\.Q
*239 Inst_E_IO_ConfigMem\.Inst_frame0_bit25\.Q
*240 Inst_E_IO_ConfigMem\.Inst_frame0_bit26\.Q
*241 Inst_E_IO_ConfigMem\.Inst_frame0_bit27\.Q
*242 Inst_E_IO_ConfigMem\.Inst_frame0_bit28\.Q
*243 Inst_E_IO_ConfigMem\.Inst_frame0_bit29\.Q
*244 Inst_E_IO_ConfigMem\.Inst_frame0_bit3\.Q
*245 Inst_E_IO_ConfigMem\.Inst_frame0_bit30\.Q
*246 Inst_E_IO_ConfigMem\.Inst_frame0_bit31\.Q
*247 Inst_E_IO_ConfigMem\.Inst_frame0_bit4\.Q
*248 Inst_E_IO_ConfigMem\.Inst_frame0_bit5\.Q
*249 Inst_E_IO_ConfigMem\.Inst_frame0_bit6\.Q
*250 Inst_E_IO_ConfigMem\.Inst_frame0_bit7\.Q
*251 Inst_E_IO_ConfigMem\.Inst_frame0_bit8\.Q
*252 Inst_E_IO_ConfigMem\.Inst_frame0_bit9\.Q
*253 Inst_E_IO_ConfigMem\.Inst_frame1_bit0\.Q
*254 Inst_E_IO_ConfigMem\.Inst_frame1_bit1\.Q
*255 Inst_E_IO_ConfigMem\.Inst_frame1_bit10\.Q
*256 Inst_E_IO_ConfigMem\.Inst_frame1_bit11\.Q
*257 Inst_E_IO_ConfigMem\.Inst_frame1_bit12\.Q
*258 Inst_E_IO_ConfigMem\.Inst_frame1_bit13\.Q
*259 Inst_E_IO_ConfigMem\.Inst_frame1_bit14\.Q
*260 Inst_E_IO_ConfigMem\.Inst_frame1_bit15\.Q
*261 Inst_E_IO_ConfigMem\.Inst_frame1_bit16\.Q
*262 Inst_E_IO_ConfigMem\.Inst_frame1_bit17\.Q
*263 Inst_E_IO_ConfigMem\.Inst_frame1_bit18\.Q
*264 Inst_E_IO_ConfigMem\.Inst_frame1_bit19\.Q
*265 Inst_E_IO_ConfigMem\.Inst_frame1_bit2\.Q
*266 Inst_E_IO_ConfigMem\.Inst_frame1_bit20\.Q
*267 Inst_E_IO_ConfigMem\.Inst_frame1_bit21\.Q
*268 Inst_E_IO_ConfigMem\.Inst_frame1_bit22\.Q
*269 Inst_E_IO_ConfigMem\.Inst_frame1_bit23\.Q
*270 Inst_E_IO_ConfigMem\.Inst_frame1_bit24\.Q
*271 Inst_E_IO_ConfigMem\.Inst_frame1_bit25\.Q
*272 Inst_E_IO_ConfigMem\.Inst_frame1_bit26\.Q
*273 Inst_E_IO_ConfigMem\.Inst_frame1_bit27\.Q
*274 Inst_E_IO_ConfigMem\.Inst_frame1_bit28\.Q
*275 Inst_E_IO_ConfigMem\.Inst_frame1_bit29\.Q
*276 Inst_E_IO_ConfigMem\.Inst_frame1_bit3\.Q
*277 Inst_E_IO_ConfigMem\.Inst_frame1_bit30\.Q
*278 Inst_E_IO_ConfigMem\.Inst_frame1_bit31\.Q
*279 Inst_E_IO_ConfigMem\.Inst_frame1_bit4\.Q
*280 Inst_E_IO_ConfigMem\.Inst_frame1_bit5\.Q
*281 Inst_E_IO_ConfigMem\.Inst_frame1_bit6\.Q
*282 Inst_E_IO_ConfigMem\.Inst_frame1_bit7\.Q
*283 Inst_E_IO_ConfigMem\.Inst_frame1_bit8\.Q
*284 Inst_E_IO_ConfigMem\.Inst_frame1_bit9\.Q
*285 Inst_E_IO_ConfigMem\.Inst_frame2_bit0\.Q
*286 Inst_E_IO_ConfigMem\.Inst_frame2_bit1\.Q
*287 Inst_E_IO_ConfigMem\.Inst_frame2_bit10\.Q
*288 Inst_E_IO_ConfigMem\.Inst_frame2_bit11\.Q
*289 Inst_E_IO_ConfigMem\.Inst_frame2_bit12\.Q
*290 Inst_E_IO_ConfigMem\.Inst_frame2_bit13\.Q
*291 Inst_E_IO_ConfigMem\.Inst_frame2_bit14\.Q
*292 Inst_E_IO_ConfigMem\.Inst_frame2_bit15\.Q
*293 Inst_E_IO_ConfigMem\.Inst_frame2_bit16\.Q
*294 Inst_E_IO_ConfigMem\.Inst_frame2_bit17\.Q
*295 Inst_E_IO_ConfigMem\.Inst_frame2_bit18\.Q
*296 Inst_E_IO_ConfigMem\.Inst_frame2_bit19\.Q
*297 Inst_E_IO_ConfigMem\.Inst_frame2_bit2\.Q
*298 Inst_E_IO_ConfigMem\.Inst_frame2_bit20\.Q
*299 Inst_E_IO_ConfigMem\.Inst_frame2_bit21\.Q
*300 Inst_E_IO_ConfigMem\.Inst_frame2_bit22\.Q
*301 Inst_E_IO_ConfigMem\.Inst_frame2_bit23\.Q
*302 Inst_E_IO_ConfigMem\.Inst_frame2_bit24\.Q
*303 Inst_E_IO_ConfigMem\.Inst_frame2_bit25\.Q
*304 Inst_E_IO_ConfigMem\.Inst_frame2_bit26\.Q
*305 Inst_E_IO_ConfigMem\.Inst_frame2_bit27\.Q
*306 Inst_E_IO_ConfigMem\.Inst_frame2_bit28\.Q
*307 Inst_E_IO_ConfigMem\.Inst_frame2_bit29\.Q
*308 Inst_E_IO_ConfigMem\.Inst_frame2_bit3\.Q
*309 Inst_E_IO_ConfigMem\.Inst_frame2_bit30\.Q
*310 Inst_E_IO_ConfigMem\.Inst_frame2_bit31\.Q
*311 Inst_E_IO_ConfigMem\.Inst_frame2_bit4\.Q
*312 Inst_E_IO_ConfigMem\.Inst_frame2_bit5\.Q
*313 Inst_E_IO_ConfigMem\.Inst_frame2_bit6\.Q
*314 Inst_E_IO_ConfigMem\.Inst_frame2_bit7\.Q
*315 Inst_E_IO_ConfigMem\.Inst_frame2_bit8\.Q
*316 Inst_E_IO_ConfigMem\.Inst_frame2_bit9\.Q
*317 Inst_E_IO_ConfigMem\.Inst_frame3_bit22\.Q
*318 Inst_E_IO_ConfigMem\.Inst_frame3_bit23\.Q
*319 Inst_E_IO_ConfigMem\.Inst_frame3_bit24\.Q
*320 Inst_E_IO_ConfigMem\.Inst_frame3_bit25\.Q
*321 Inst_E_IO_ConfigMem\.Inst_frame3_bit26\.Q
*322 Inst_E_IO_ConfigMem\.Inst_frame3_bit27\.Q
*323 Inst_E_IO_ConfigMem\.Inst_frame3_bit28\.Q
*324 Inst_E_IO_ConfigMem\.Inst_frame3_bit29\.Q
*325 Inst_E_IO_ConfigMem\.Inst_frame3_bit30\.Q
*326 Inst_E_IO_ConfigMem\.Inst_frame3_bit31\.Q
*327 Inst_E_IO_switch_matrix\.W1BEG0
*328 Inst_E_IO_switch_matrix\.W1BEG1
*329 Inst_E_IO_switch_matrix\.W1BEG2
*330 Inst_E_IO_switch_matrix\.W1BEG3
*331 Inst_E_IO_switch_matrix\.W2BEG0
*332 Inst_E_IO_switch_matrix\.W2BEG1
*333 Inst_E_IO_switch_matrix\.W2BEG2
*334 Inst_E_IO_switch_matrix\.W2BEG3
*335 Inst_E_IO_switch_matrix\.W2BEG4
*336 Inst_E_IO_switch_matrix\.W2BEG5
*337 Inst_E_IO_switch_matrix\.W2BEG6
*338 Inst_E_IO_switch_matrix\.W2BEG7
*339 Inst_E_IO_switch_matrix\.W2BEGb0
*340 Inst_E_IO_switch_matrix\.W2BEGb1
*341 Inst_E_IO_switch_matrix\.W2BEGb2
*342 Inst_E_IO_switch_matrix\.W2BEGb3
*343 Inst_E_IO_switch_matrix\.W2BEGb4
*344 Inst_E_IO_switch_matrix\.W2BEGb5
*345 Inst_E_IO_switch_matrix\.W2BEGb6
*346 Inst_E_IO_switch_matrix\.W2BEGb7
*347 Inst_E_IO_switch_matrix\.W6BEG0
*348 Inst_E_IO_switch_matrix\.W6BEG1
*349 Inst_E_IO_switch_matrix\.W6BEG10
*350 Inst_E_IO_switch_matrix\.W6BEG11
*351 Inst_E_IO_switch_matrix\.W6BEG2
*352 Inst_E_IO_switch_matrix\.W6BEG3
*353 Inst_E_IO_switch_matrix\.W6BEG4
*354 Inst_E_IO_switch_matrix\.W6BEG5
*355 Inst_E_IO_switch_matrix\.W6BEG6
*356 Inst_E_IO_switch_matrix\.W6BEG7
*357 Inst_E_IO_switch_matrix\.W6BEG8
*358 Inst_E_IO_switch_matrix\.W6BEG9
*359 Inst_E_IO_switch_matrix\.WW4BEG0
*360 Inst_E_IO_switch_matrix\.WW4BEG1
*361 Inst_E_IO_switch_matrix\.WW4BEG10
*362 Inst_E_IO_switch_matrix\.WW4BEG11
*363 Inst_E_IO_switch_matrix\.WW4BEG12
*364 Inst_E_IO_switch_matrix\.WW4BEG13
*365 Inst_E_IO_switch_matrix\.WW4BEG14
*366 Inst_E_IO_switch_matrix\.WW4BEG15
*367 Inst_E_IO_switch_matrix\.WW4BEG2
*368 Inst_E_IO_switch_matrix\.WW4BEG3
*369 Inst_E_IO_switch_matrix\.WW4BEG4
*370 Inst_E_IO_switch_matrix\.WW4BEG5
*371 Inst_E_IO_switch_matrix\.WW4BEG6
*372 Inst_E_IO_switch_matrix\.WW4BEG7
*373 Inst_E_IO_switch_matrix\.WW4BEG8
*374 Inst_E_IO_switch_matrix\.WW4BEG9
*375 _000_
*376 _001_
*377 _002_
*378 _003_
*379 _004_
*380 _005_
*381 _006_
*382 _007_
*383 _008_
*384 _009_
*385 _010_
*386 _011_
*387 _012_
*388 _013_
*389 _014_
*390 _015_
*391 _016_
*392 _017_
*393 _018_
*394 _019_
*395 _020_
*396 _021_
*397 _022_
*398 _023_
*399 _024_
*400 _025_
*401 _026_
*402 _027_
*403 _028_
*404 _029_
*405 _030_
*406 _031_
*407 _032_
*408 _033_
*409 _034_
*410 _035_
*411 _036_
*412 _037_
*413 _038_
*414 _039_
*415 _040_
*416 _041_
*417 _042_
*418 _043_
*419 _044_
*420 _045_
*421 _046_
*422 _047_
*423 _048_
*424 _049_
*425 _050_
*426 net1
*427 net10
*428 net100
*429 net101
*430 net102
*431 net103
*432 net104
*433 net105
*434 net106
*435 net107
*436 net108
*437 net109
*438 net11
*439 net110
*440 net111
*441 net112
*442 net113
*443 net114
*444 net115
*445 net116
*446 net117
*447 net118
*448 net119
*449 net12
*450 net120
*451 net121
*452 net122
*453 net123
*454 net124
*455 net125
*456 net126
*457 net127
*458 net128
*459 net129
*460 net13
*461 net130
*462 net131
*463 net132
*464 net133
*465 net134
*466 net135
*467 net136
*468 net137
*469 net138
*470 net139
*471 net14
*472 net140
*473 net141
*474 net142
*475 net143
*476 net144
*477 net145
*478 net146
*479 net147
*480 net148
*481 net149
*482 net15
*483 net150
*484 net151
*485 net152
*486 net153
*487 net154
*488 net155
*489 net156
*490 net157
*491 net158
*492 net159
*493 net16
*494 net160
*495 net161
*496 net162
*497 net163
*498 net164
*499 net165
*500 net166
*501 net167
*502 net168
*503 net169
*504 net17
*505 net170
*506 net171
*507 net172
*508 net173
*509 net174
*510 net175
*511 net176
*512 net177
*513 net178
*514 net179
*515 net18
*516 net180
*517 net181
*518 net182
*519 net183
*520 net184
*521 net185
*522 net186
*523 net187
*524 net188
*525 net189
*526 net19
*527 net190
*528 net191
*529 net192
*530 net193
*531 net194
*532 net195
*533 net196
*534 net197
*535 net198
*536 net199
*537 net2
*538 net20
*539 net200
*540 net201
*541 net202
*542 net203
*543 net204
*544 net205
*545 net206
*546 net207
*547 net208
*548 net209
*549 net21
*550 net210
*551 net211
*552 net212
*553 net213
*554 net214
*555 net215
*556 net216
*557 net22
*558 net23
*559 net24
*560 net25
*561 net26
*562 net27
*563 net28
*564 net29
*565 net3
*566 net30
*567 net31
*568 net32
*569 net33
*570 net34
*571 net35
*572 net36
*573 net37
*574 net38
*575 net39
*576 net4
*577 net40
*578 net41
*579 net42
*580 net43
*581 net44
*582 net45
*583 net46
*584 net47
*585 net48
*586 net49
*587 net5
*588 net50
*589 net51
*590 net52
*591 net53
*592 net54
*593 net55
*594 net56
*595 net57
*596 net58
*597 net59
*598 net6
*599 net60
*600 net61
*601 net62
*602 net63
*603 net64
*604 net65
*605 net66
*606 net67
*607 net68
*608 net69
*609 net7
*610 net70
*611 net71
*612 net72
*613 net73
*614 net74
*615 net75
*616 net76
*617 net77
*618 net78
*619 net79
*620 net8
*621 net80
*622 net81
*623 net82
*624 net83
*625 net84
*626 net85
*627 net86
*628 net87
*629 net88
*630 net89
*631 net9
*632 net90
*633 net91
*634 net92
*635 net93
*636 net94
*637 net95
*638 net96
*639 net97
*640 net98
*641 net99
*642 ANTENNA_1
*643 ANTENNA_10
*644 ANTENNA_100
*645 ANTENNA_101
*646 ANTENNA_102
*647 ANTENNA_103
*648 ANTENNA_104
*649 ANTENNA_105
*650 ANTENNA_106
*651 ANTENNA_107
*652 ANTENNA_108
*653 ANTENNA_109
*654 ANTENNA_11
*655 ANTENNA_110
*656 ANTENNA_111
*657 ANTENNA_112
*658 ANTENNA_113
*659 ANTENNA_114
*660 ANTENNA_115
*661 ANTENNA_116
*662 ANTENNA_117
*663 ANTENNA_118
*664 ANTENNA_119
*665 ANTENNA_12
*666 ANTENNA_120
*667 ANTENNA_121
*668 ANTENNA_122
*669 ANTENNA_123
*670 ANTENNA_124
*671 ANTENNA_125
*672 ANTENNA_126
*673 ANTENNA_127
*674 ANTENNA_128
*675 ANTENNA_129
*676 ANTENNA_13
*677 ANTENNA_130
*678 ANTENNA_131
*679 ANTENNA_132
*680 ANTENNA_133
*681 ANTENNA_134
*682 ANTENNA_135
*683 ANTENNA_136
*684 ANTENNA_137
*685 ANTENNA_138
*686 ANTENNA_139
*687 ANTENNA_14
*688 ANTENNA_140
*689 ANTENNA_141
*690 ANTENNA_142
*691 ANTENNA_143
*692 ANTENNA_144
*693 ANTENNA_145
*694 ANTENNA_146
*695 ANTENNA_147
*696 ANTENNA_148
*697 ANTENNA_149
*698 ANTENNA_15
*699 ANTENNA_150
*700 ANTENNA_151
*701 ANTENNA_152
*702 ANTENNA_153
*703 ANTENNA_154
*704 ANTENNA_155
*705 ANTENNA_16
*706 ANTENNA_17
*707 ANTENNA_18
*708 ANTENNA_19
*709 ANTENNA_2
*710 ANTENNA_20
*711 ANTENNA_21
*712 ANTENNA_22
*713 ANTENNA_23
*714 ANTENNA_24
*715 ANTENNA_25
*716 ANTENNA_26
*717 ANTENNA_27
*718 ANTENNA_28
*719 ANTENNA_29
*720 ANTENNA_3
*721 ANTENNA_30
*722 ANTENNA_31
*723 ANTENNA_32
*724 ANTENNA_33
*725 ANTENNA_34
*726 ANTENNA_35
*727 ANTENNA_36
*728 ANTENNA_37
*729 ANTENNA_38
*730 ANTENNA_39
*731 ANTENNA_4
*732 ANTENNA_40
*733 ANTENNA_41
*734 ANTENNA_42
*735 ANTENNA_43
*736 ANTENNA_44
*737 ANTENNA_45
*738 ANTENNA_46
*739 ANTENNA_47
*740 ANTENNA_48
*741 ANTENNA_49
*742 ANTENNA_5
*743 ANTENNA_50
*744 ANTENNA_51
*745 ANTENNA_52
*746 ANTENNA_53
*747 ANTENNA_54
*748 ANTENNA_55
*749 ANTENNA_56
*750 ANTENNA_57
*751 ANTENNA_58
*752 ANTENNA_59
*753 ANTENNA_6
*754 ANTENNA_60
*755 ANTENNA_61
*756 ANTENNA_62
*757 ANTENNA_63
*758 ANTENNA_64
*759 ANTENNA_65
*760 ANTENNA_66
*761 ANTENNA_67
*762 ANTENNA_68
*763 ANTENNA_69
*764 ANTENNA_7
*765 ANTENNA_70
*766 ANTENNA_71
*767 ANTENNA_72
*768 ANTENNA_73
*769 ANTENNA_74
*770 ANTENNA_75
*771 ANTENNA_76
*772 ANTENNA_77
*773 ANTENNA_78
*774 ANTENNA_79
*775 ANTENNA_8
*776 ANTENNA_80
*777 ANTENNA_81
*778 ANTENNA_82
*779 ANTENNA_83
*780 ANTENNA_84
*781 ANTENNA_85
*782 ANTENNA_86
*783 ANTENNA_87
*784 ANTENNA_88
*785 ANTENNA_89
*786 ANTENNA_9
*787 ANTENNA_90
*788 ANTENNA_91
*789 ANTENNA_92
*790 ANTENNA_93
*791 ANTENNA_94
*792 ANTENNA_95
*793 ANTENNA_96
*794 ANTENNA_97
*795 ANTENNA_98
*796 ANTENNA_99
*797 FILLER_0_52
*798 FILLER_0_59
*799 FILLER_0_66
*800 FILLER_0_73
*801 FILLER_0_80
*802 FILLER_0_87
*803 FILLER_10_46
*804 FILLER_10_48
*805 FILLER_10_96
*806 FILLER_10_98
*807 FILLER_11_10
*808 FILLER_11_28
*809 FILLER_11_30
*810 FILLER_11_60
*811 FILLER_11_67
*812 FILLER_11_79
*813 FILLER_11_8
*814 FILLER_11_88
*815 FILLER_11_90
*816 FILLER_12_31
*817 FILLER_12_50
*818 FILLER_12_72
*819 FILLER_12_8
*820 FILLER_13_0
*821 FILLER_13_2
*822 FILLER_13_29
*823 FILLER_13_51
*824 FILLER_14_46
*825 FILLER_14_50
*826 FILLER_14_55
*827 FILLER_14_64
*828 FILLER_14_71
*829 FILLER_14_77
*830 FILLER_15_0
*831 FILLER_15_53
*832 FILLER_15_57
*833 FILLER_15_73
*834 FILLER_15_96
*835 FILLER_15_98
*836 FILLER_16_12
*837 FILLER_16_42
*838 FILLER_16_44
*839 FILLER_16_49
*840 FILLER_16_54
*841 FILLER_16_61
*842 FILLER_16_90
*843 FILLER_17_33
*844 FILLER_17_93
*845 FILLER_18_44
*846 FILLER_18_68
*847 FILLER_18_72
*848 FILLER_19_27
*849 FILLER_19_42
*850 FILLER_19_5
*851 FILLER_19_61
*852 FILLER_19_97
*853 FILLER_1_24
*854 FILLER_1_31
*855 FILLER_1_57
*856 FILLER_1_64
*857 FILLER_1_7
*858 FILLER_1_71
*859 FILLER_1_78
*860 FILLER_1_85
*861 FILLER_1_92
*862 FILLER_1_94
*863 FILLER_20_52
*864 FILLER_20_57
*865 FILLER_21_27
*866 FILLER_21_5
*867 FILLER_21_57
*868 FILLER_21_64
*869 FILLER_21_66
*870 FILLER_21_92
*871 FILLER_21_94
*872 FILLER_22_5
*873 FILLER_22_68
*874 FILLER_22_96
*875 FILLER_22_98
*876 FILLER_23_39
*877 FILLER_24_97
*878 FILLER_25_5
*879 FILLER_25_97
*880 FILLER_26_5
*881 FILLER_26_55
*882 FILLER_27_27
*883 FILLER_27_49
*884 FILLER_27_74
*885 FILLER_28_44
*886 FILLER_28_59
*887 FILLER_28_68
*888 FILLER_29_72
*889 FILLER_29_97
*890 FILLER_2_3
*891 FILLER_2_64
*892 FILLER_2_71
*893 FILLER_2_78
*894 FILLER_2_85
*895 FILLER_2_92
*896 FILLER_2_94
*897 FILLER_30_17
*898 FILLER_30_29
*899 FILLER_30_81
*900 FILLER_31_17
*901 FILLER_31_48
*902 FILLER_31_67
*903 FILLER_32_23
*904 FILLER_32_5
*905 FILLER_32_89
*906 FILLER_33_81
*907 FILLER_34_51
*908 FILLER_34_97
*909 FILLER_35_0
*910 FILLER_35_65
*911 FILLER_36_10
*912 FILLER_36_33
*913 FILLER_36_64
*914 FILLER_36_83
*915 FILLER_36_93
*916 FILLER_37_17
*917 FILLER_37_76
*918 FILLER_38_0
*919 FILLER_38_19
*920 FILLER_38_86
*921 FILLER_38_97
*922 FILLER_39_58
*923 FILLER_39_97
*924 FILLER_3_27
*925 FILLER_3_3
*926 FILLER_3_46
*927 FILLER_3_67
*928 FILLER_3_74
*929 FILLER_3_81
*930 FILLER_3_88
*931 FILLER_3_90
*932 FILLER_40_79
*933 FILLER_41_51
*934 FILLER_42_68
*935 FILLER_42_98
*936 FILLER_44_71
*937 FILLER_45_61
*938 FILLER_46_0
*939 FILLER_46_39
*940 FILLER_46_61
*941 FILLER_46_83
*942 FILLER_46_89
*943 FILLER_47_49
*944 FILLER_47_97
*945 FILLER_48_29
*946 FILLER_48_48
*947 FILLER_48_59
*948 FILLER_48_77
*949 FILLER_49_0
*950 FILLER_49_98
*951 FILLER_4_0
*952 FILLER_4_12
*953 FILLER_4_31
*954 FILLER_4_77
*955 FILLER_4_84
*956 FILLER_4_91
*957 FILLER_4_98
*958 FILLER_50_0
*959 FILLER_50_19
*960 FILLER_50_67
*961 FILLER_51_8
*962 FILLER_51_89
*963 FILLER_52_44
*964 FILLER_53_52
*965 FILLER_54_20
*966 FILLER_54_73
*967 FILLER_54_84
*968 FILLER_55_16
*969 FILLER_55_29
*970 FILLER_55_37
*971 FILLER_55_45
*972 FILLER_55_59
*973 FILLER_55_79
*974 FILLER_55_84
*975 FILLER_56_23
*976 FILLER_56_37
*977 FILLER_56_50
*978 FILLER_56_60
*979 FILLER_56_79
*980 FILLER_56_89
*981 FILLER_57_28
*982 FILLER_57_8
*983 FILLER_57_93
*984 FILLER_5_0
*985 FILLER_5_55
*986 FILLER_5_86
*987 FILLER_5_93
*988 FILLER_6_0
*989 FILLER_6_70
*990 FILLER_6_77
*991 FILLER_6_84
*992 FILLER_7_30
*993 FILLER_7_49
*994 FILLER_7_68
*995 FILLER_7_93
*996 FILLER_8_37
*997 FILLER_8_60
*998 FILLER_8_77
*999 FILLER_8_98
*1000 FILLER_9_0
*1001 FILLER_9_28
*1002 FILLER_9_46
*1003 FILLER_9_58
*1004 FILLER_9_77
*1005 _053_
*1006 _054_
*1007 _055_
*1008 _056_
*1009 _057_
*1010 _058_
*1011 _059_
*1012 _060_
*1013 _061_
*1014 _062_
*1015 _063_
*1016 _064_
*1017 _065_
*1018 _066_
*1019 _067_
*1020 _068_
*1021 _069_
*1022 _070_
*1023 _071_
*1024 _072_
*1025 _073_
*1026 _074_
*1027 _075_
*1028 _076_
*1029 _077_
*1030 _078_
*1031 _079_
*1032 _080_
*1033 _081_
*1034 _082_
*1035 _083_
*1036 _084_
*1037 _085_
*1038 _086_
*1039 _087_
*1040 _088_
*1041 _089_
*1042 _090_
*1043 _091_
*1044 _092_
*1045 _093_
*1046 _094_
*1047 _095_
*1048 _096_
*1049 _097_
*1050 _098_
*1051 _099_
*1052 _100_
*1053 _101_
*1054 _102_
*1055 _103_
*1056 _104_
*1057 _105_
*1058 _106_
*1059 _107_
*1060 _108_
*1061 _109_
*1062 _110_
*1063 _111_
*1064 _112_
*1065 _113_
*1066 _114_
*1067 _115_
*1068 _116_
*1069 _117_
*1070 _118_
*1071 _119_
*1072 _120_
*1073 _121_
*1074 _122_
*1075 _123_
*1076 _124_
*1077 _125_
*1078 _126_
*1079 _127_
*1080 _128_
*1081 _129_
*1082 _130_
*1083 _131_
*1084 _132_
*1085 _133_
*1086 _134_
*1087 _135_
*1088 _136_
*1089 _137_
*1090 _138_
*1091 _139_
*1092 _140_
*1093 _141_
*1094 _142_
*1095 _143_
*1096 _144_
*1097 _145_
*1098 _146_
*1099 _147_
*1100 _148_
*1101 _149_
*1102 _150_
*1103 _151_
*1104 _152_
*1105 _153_
*1106 _154_
*1107 _155_
*1108 _156_
*1109 _157_
*1110 _158_
*1111 _159_
*1112 _160_
*1113 _161_
*1114 _162_
*1115 _163_
*1116 _164_
*1117 _165_
*1118 _166_
*1119 _167_
*1120 _168_
*1121 _169_
*1122 _170_
*1123 _171_
*1124 _172_
*1125 _173_
*1126 _174_
*1127 _175_
*1128 _176_
*1129 _177_
*1130 _178_
*1131 _179_
*1132 _180_
*1133 _181_
*1134 _182_
*1135 _183_
*1136 _184_
*1137 _185_
*1138 _186_
*1139 _187_
*1140 _188_
*1141 _189_
*1142 _190_
*1143 _191_
*1144 _192_
*1145 _193_
*1146 _194_
*1147 _195_
*1148 _196_
*1149 _197_
*1150 _198_
*1151 _199_
*1152 _200_
*1153 _201_
*1154 _202_
*1155 _203_
*1156 _204_
*1157 _205_
*1158 _206_
*1159 _207_
*1160 _208_
*1161 _209_
*1162 _210_
*1163 _211_
*1164 _212_
*1165 _213_
*1166 _214_
*1167 _215_
*1168 _216_
*1169 _217_
*1170 _218_
*1171 _219_
*1172 _220_
*1173 _221_
*1174 _222_
*1175 _223_
*1176 _224_
*1177 _225_
*1178 _226_
*1179 _227_
*1180 _228_
*1181 _229_
*1182 _230_
*1183 _231_
*1184 _232_
*1185 _233_
*1186 _234_
*1187 _235_
*1188 _236_
*1189 _237_
*1190 _238_
*1191 _239_
*1192 _240_
*1193 _241_
*1194 _242_
*1195 _243_
*1196 _244_
*1197 _245_
*1198 _246_
*1199 _247_
*1200 _248_
*1201 _249_
*1202 _250_
*1203 _251_
*1204 _252_
*1205 _253_
*1206 _254_
*1207 _255_
*1208 _256_
*1209 _257_
*1210 _258_
*1211 _259_
*1212 _260_
*1213 _261_
*1214 _262_
*1215 _263_
*1216 _264_
*1217 _265_
*1218 _266_
*1219 _267_
*1220 _268_
*1221 _268__196
*1222 _269_
*1223 _269__197
*1224 _272_
*1225 _273_
*1226 _274_
*1227 _275_
*1228 _276_
*1229 _277_
*1230 _278_
*1231 _279_
*1232 _280_
*1233 _281_
*1234 _282_
*1235 _283_
*1236 _284_
*1237 _285_
*1238 _286_
*1239 _287_
*1240 _288_
*1241 _289_
*1242 _290_
*1243 _291_
*1244 _292_
*1245 _293_
*1246 _294_
*1247 _295_
*1248 _296_
*1249 _297_
*1250 _298_
*1251 _299_
*1252 _300_
*1253 _301_
*1254 _302_
*1255 _303_
*1256 _304_
*1257 _305_
*1258 _306_
*1259 _307_
*1260 _308_
*1261 _309_
*1262 _310_
*1263 _311_
*1264 _312_
*1265 _313_
*1266 _314_
*1267 _315_
*1268 _316_
*1269 _317_
*1270 _318_
*1271 _319_
*1272 _320_
*1273 _321_
*1274 _322_
*1275 _323_
*1276 _324_
*1277 _325_
*1278 _326_
*1279 _327_
*1280 _328_
*1281 _329_
*1282 _330_
*1283 _331_
*1284 _332_
*1285 _333_
*1286 _334_
*1287 _335_
*1288 _336_
*1289 _337_
*1290 _338_
*1291 _339_
*1292 _340_
*1293 _341_
*1294 _342_
*1295 _343_
*1296 _344_
*1297 _345_
*1298 _346_
*1299 _347_
*1300 _348_
*1301 _349_
*1302 _350_
*1303 _351_
*1304 _352_
*1305 _353_
*1306 _354_
*1307 _355_
*1308 _356_
*1309 _357_
*1310 _358_
*1311 _359_
*1312 _360_
*1313 _361_
*1314 _362_
*1315 _363_
*1316 _364_
*1317 _365_
*1318 _366_
*1319 _367_
*1320 _368_
*1321 _369_
*1322 _370_
*1323 _371_
*1324 _372_
*1325 fanout59
*1326 fanout60
*1327 fanout61
*1328 fanout62
*1329 fanout63
*1330 fanout64
*1331 fanout65
*1332 fanout66
*1333 fanout67
*1334 fanout68
*1335 fanout69
*1336 fanout70
*1337 fanout71
*1338 fanout72
*1339 fanout73
*1340 fanout74
*1341 fanout75
*1342 fanout76
*1343 fanout77
*1344 input1
*1345 input10
*1346 input11
*1347 input12
*1348 input13
*1349 input14
*1350 input15
*1351 input16
*1352 input17
*1353 input18
*1354 input19
*1355 input2
*1356 input20
*1357 input21
*1358 input22
*1359 input23
*1360 input24
*1361 input25
*1362 input26
*1363 input27
*1364 input28
*1365 input29
*1366 input3
*1367 input30
*1368 input31
*1369 input32
*1370 input33
*1371 input34
*1372 input35
*1373 input36
*1374 input37
*1375 input38
*1376 input39
*1377 input4
*1378 input40
*1379 input41
*1380 input42
*1381 input43
*1382 input44
*1383 input45
*1384 input46
*1385 input47
*1386 input48
*1387 input49
*1388 input5
*1389 input50
*1390 input51
*1391 input52
*1392 input53
*1393 input54
*1394 input55
*1395 input56
*1396 input57
*1397 input58
*1398 input59
*1399 input6
*1400 input60
*1401 input61
*1402 input62
*1403 input63
*1404 input64
*1405 input65
*1406 input66
*1407 input67
*1408 input68
*1409 input69
*1410 input7
*1411 input70
*1412 input71
*1413 input72
*1414 input73
*1415 input74
*1416 input75
*1417 input76
*1418 input77
*1419 input78
*1420 input79
*1421 input8
*1422 input80
*1423 input81
*1424 input82
*1425 input9
*1426 output100
*1427 output101
*1428 output102
*1429 output103
*1430 output104
*1431 output105
*1432 output106
*1433 output107
*1434 output108
*1435 output109
*1436 output110
*1437 output111
*1438 output112
*1439 output113
*1440 output114
*1441 output115
*1442 output116
*1443 output117
*1444 output118
*1445 output119
*1446 output120
*1447 output121
*1448 output122
*1449 output123
*1450 output124
*1451 output125
*1452 output126
*1453 output127
*1454 output128
*1455 output129
*1456 output130
*1457 output131
*1458 output132
*1459 output133
*1460 output134
*1461 output135
*1462 output136
*1463 output137
*1464 output138
*1465 output139
*1466 output140
*1467 output141
*1468 output142
*1469 output143
*1470 output144
*1471 output145
*1472 output146
*1473 output147
*1474 output148
*1475 output149
*1476 output150
*1477 output151
*1478 output152
*1479 output153
*1480 output154
*1481 output155
*1482 output156
*1483 output157
*1484 output158
*1485 output159
*1486 output160
*1487 output161
*1488 output162
*1489 output163
*1490 output164
*1491 output165
*1492 output166
*1493 output167
*1494 output168
*1495 output169
*1496 output170
*1497 output171
*1498 output172
*1499 output173
*1500 output174
*1501 output175
*1502 output176
*1503 output177
*1504 output178
*1505 output179
*1506 output180
*1507 output181
*1508 output182
*1509 output183
*1510 output184
*1511 output185
*1512 output186
*1513 output187
*1514 output188
*1515 output189
*1516 output190
*1517 output191
*1518 output192
*1519 output193
*1520 output194
*1521 output195
*1522 output83
*1523 output84
*1524 output85
*1525 output86
*1526 output87
*1527 output88
*1528 output89
*1529 output90
*1530 output91
*1531 output92
*1532 output93
*1533 output94
*1534 output95
*1535 output96
*1536 output97
*1537 output98
*1538 output99

*PORTS
A_I_top O
A_O_top I
A_T_top O
A_config_C_bit0 O
A_config_C_bit1 O
A_config_C_bit2 O
A_config_C_bit3 O
B_I_top O
B_O_top I
B_T_top O
B_config_C_bit0 O
B_config_C_bit1 O
B_config_C_bit2 O
B_config_C_bit3 O
E1END[0] I
E1END[1] I
E1END[2] I
E1END[3] I
E2END[0] I
E2END[1] I
E2END[2] I
E2END[3] I
E2END[4] I
E2END[5] I
E2END[6] I
E2END[7] I
E2MID[0] I
E2MID[1] I
E2MID[2] I
E2MID[3] I
E2MID[4] I
E2MID[5] I
E2MID[6] I
E2MID[7] I
E6END[0] I
E6END[10] I
E6END[11] I
E6END[1] I
E6END[2] I
E6END[3] I
E6END[4] I
E6END[5] I
E6END[6] I
E6END[7] I
E6END[8] I
E6END[9] I
EE4END[0] I
EE4END[10] I
EE4END[11] I
EE4END[12] I
EE4END[13] I
EE4END[14] I
EE4END[15] I
EE4END[1] I
EE4END[2] I
EE4END[3] I
EE4END[4] I
EE4END[5] I
EE4END[6] I
EE4END[7] I
EE4END[8] I
EE4END[9] I
FrameData[0] I
FrameData[10] I
FrameData[11] I
FrameData[12] I
FrameData[13] I
FrameData[14] I
FrameData[15] I
FrameData[16] I
FrameData[17] I
FrameData[18] I
FrameData[19] I
FrameData[1] I
FrameData[20] I
FrameData[21] I
FrameData[22] I
FrameData[23] I
FrameData[24] I
FrameData[25] I
FrameData[26] I
FrameData[27] I
FrameData[28] I
FrameData[29] I
FrameData[2] I
FrameData[30] I
FrameData[31] I
FrameData[3] I
FrameData[4] I
FrameData[5] I
FrameData[6] I
FrameData[7] I
FrameData[8] I
FrameData[9] I
FrameData_O[0] O
FrameData_O[10] O
FrameData_O[11] O
FrameData_O[12] O
FrameData_O[13] O
FrameData_O[14] O
FrameData_O[15] O
FrameData_O[16] O
FrameData_O[17] O
FrameData_O[18] O
FrameData_O[19] O
FrameData_O[1] O
FrameData_O[20] O
FrameData_O[21] O
FrameData_O[22] O
FrameData_O[23] O
FrameData_O[24] O
FrameData_O[25] O
FrameData_O[26] O
FrameData_O[27] O
FrameData_O[28] O
FrameData_O[29] O
FrameData_O[2] O
FrameData_O[30] O
FrameData_O[31] O
FrameData_O[3] O
FrameData_O[4] O
FrameData_O[5] O
FrameData_O[6] O
FrameData_O[7] O
FrameData_O[8] O
FrameData_O[9] O
FrameStrobe[0] I
FrameStrobe[10] I
FrameStrobe[11] I
FrameStrobe[12] I
FrameStrobe[13] I
FrameStrobe[14] I
FrameStrobe[15] I
FrameStrobe[16] I
FrameStrobe[17] I
FrameStrobe[18] I
FrameStrobe[19] I
FrameStrobe[1] I
FrameStrobe[2] I
FrameStrobe[3] I
FrameStrobe[4] I
FrameStrobe[5] I
FrameStrobe[6] I
FrameStrobe[7] I
FrameStrobe[8] I
FrameStrobe[9] I
FrameStrobe_O[0] O
FrameStrobe_O[10] O
FrameStrobe_O[11] O
FrameStrobe_O[12] O
FrameStrobe_O[13] O
FrameStrobe_O[14] O
FrameStrobe_O[15] O
FrameStrobe_O[16] O
FrameStrobe_O[17] O
FrameStrobe_O[18] O
FrameStrobe_O[19] O
FrameStrobe_O[1] O
FrameStrobe_O[2] O
FrameStrobe_O[3] O
FrameStrobe_O[4] O
FrameStrobe_O[5] O
FrameStrobe_O[6] O
FrameStrobe_O[7] O
FrameStrobe_O[8] O
FrameStrobe_O[9] O
UserCLK I
UserCLKo O
W1BEG[0] O
W1BEG[1] O
W1BEG[2] O
W1BEG[3] O
W2BEG[0] O
W2BEG[1] O
W2BEG[2] O
W2BEG[3] O
W2BEG[4] O
W2BEG[5] O
W2BEG[6] O
W2BEG[7] O
W2BEGb[0] O
W2BEGb[1] O
W2BEGb[2] O
W2BEGb[3] O
W2BEGb[4] O
W2BEGb[5] O
W2BEGb[6] O