*SPEF "ieee 1481-1999"
*DESIGN "S_IO"
*DATE "15:52:07 Sunday February 16, 2025"
*VENDOR "The OpenROAD Project"
*PROGRAM "OpenROAD"
*VERSION "87af90f72f3f9be1fdfa1d886f0dd8d8b8f34694"
*DESIGN_FLOW "NAME_SCOPE LOCAL" "PIN_CAP NONE"
*DIVIDER /
*DELIMITER :
*BUS_DELIMITER []
*T_UNIT 1 NS
*C_UNIT 1 PF
*R_UNIT 1 OHM
*L_UNIT 1 HENRY

*NAME_MAP
*1 A_I_top
*2 A_O_top
*3 A_T_top
*4 A_config_C_bit0
*5 A_config_C_bit1
*6 A_config_C_bit2
*7 A_config_C_bit3
*8 B_I_top
*9 B_O_top
*10 B_T_top
*11 B_config_C_bit0
*12 B_config_C_bit1
*13 B_config_C_bit2
*14 B_config_C_bit3
*15 net220
*16 FrameData[0]
*17 FrameData[10]
*18 FrameData[11]
*19 FrameData[12]
*20 FrameData[13]
*21 FrameData[14]
*22 FrameData[15]
*23 FrameData[16]
*24 FrameData[17]
*25 FrameData[18]
*26 FrameData[19]
*27 FrameData[1]
*28 FrameData[20]
*29 FrameData[21]
*30 FrameData[22]
*31 FrameData[23]
*32 FrameData[24]
*33 FrameData[25]
*34 FrameData[26]
*35 FrameData[27]
*36 FrameData[28]
*37 FrameData[29]
*38 FrameData[2]
*39 FrameData[30]
*40 FrameData[31]
*41 FrameData[3]
*42 FrameData[4]
*43 FrameData[5]
*44 FrameData[6]
*45 FrameData[7]
*46 FrameData[8]
*47 FrameData[9]
*48 FrameData_O[0]
*49 FrameData_O[10]
*50 FrameData_O[11]
*51 FrameData_O[12]
*52 FrameData_O[13]
*53 FrameData_O[14]
*54 FrameData_O[15]
*55 FrameData_O[16]
*56 FrameData_O[17]
*57 FrameData_O[18]
*58 FrameData_O[19]
*59 FrameData_O[1]
*60 FrameData_O[20]
*61 FrameData_O[21]
*62 FrameData_O[22]
*63 FrameData_O[23]
*64 FrameData_O[24]
*65 FrameData_O[25]
*66 FrameData_O[26]
*67 FrameData_O[27]
*68 FrameData_O[28]
*69 FrameData_O[29]
*70 FrameData_O[2]
*71 FrameData_O[30]
*72 FrameData_O[31]
*73 FrameData_O[3]
*74 FrameData_O[4]
*75 FrameData_O[5]
*76 FrameData_O[6]
*77 FrameData_O[7]
*78 FrameData_O[8]
*79 FrameData_O[9]
*80 FrameStrobe[0]
*81 FrameStrobe[10]
*82 FrameStrobe[11]
*83 FrameStrobe[12]
*84 FrameStrobe[13]
*85 FrameStrobe[14]
*86 FrameStrobe[15]
*87 FrameStrobe[16]
*88 FrameStrobe[17]
*89 FrameStrobe[18]
*90 FrameStrobe[19]
*91 FrameStrobe[1]
*92 FrameStrobe[2]
*93 FrameStrobe[3]
*94 FrameStrobe[4]
*95 FrameStrobe[5]
*96 FrameStrobe[6]
*97 FrameStrobe[7]
*98 FrameStrobe[8]
*99 FrameStrobe[9]
*100 FrameStrobe_O[0]
*101 FrameStrobe_O[10]
*102 FrameStrobe_O[11]
*103 FrameStrobe_O[12]
*104 FrameStrobe_O[13]
*105 FrameStrobe_O[14]
*106 FrameStrobe_O[15]
*107 FrameStrobe_O[16]
*108 FrameStrobe_O[17]
*109 FrameStrobe_O[18]
*110 FrameStrobe_O[19]
*111 FrameStrobe_O[1]
*112 FrameStrobe_O[2]
*113 FrameStrobe_O[3]
*114 FrameStrobe_O[4]
*115 FrameStrobe_O[5]
*116 FrameStrobe_O[6]
*117 FrameStrobe_O[7]
*118 FrameStrobe_O[8]
*119 FrameStrobe_O[9]
*120 N1BEG[0]
*121 N1BEG[1]
*122 N1BEG[2]
*123 N1BEG[3]
*124 N2BEG[0]
*125 N2BEG[1]
*126 N2BEG[2]
*127 N2BEG[3]
*128 N2BEG[4]
*129 N2BEG[5]
*130 N2BEG[6]
*131 N2BEG[7]
*132 N2BEGb[0]
*133 N2BEGb[1]
*134 N2BEGb[2]
*135 N2BEGb[3]
*136 N2BEGb[4]
*137 N2BEGb[5]
*138 N2BEGb[6]
*139 N2BEGb[7]
*140 N4BEG[0]
*141 N4BEG[10]
*142 N4BEG[11]
*143 N4BEG[12]
*144 N4BEG[13]
*145 N4BEG[14]
*146 N4BEG[15]
*147 N4BEG[1]
*148 N4BEG[2]
*149 N4BEG[3]
*150 N4BEG[4]
*151 N4BEG[5]
*152 N4BEG[6]
*153 N4BEG[7]
*154 N4BEG[8]
*155 N4BEG[9]
*156 NN4BEG[0]
*157 NN4BEG[10]
*158 NN4BEG[11]
*159 NN4BEG[12]
*160 NN4BEG[13]
*161 NN4BEG[14]
*162 NN4BEG[15]
*163 NN4BEG[1]
*164 NN4BEG[2]
*165 NN4BEG[3]
*166 NN4BEG[4]
*167 NN4BEG[5]
*168 NN4BEG[6]
*169 NN4BEG[7]
*170 NN4BEG[8]
*171 NN4BEG[9]
*172 S1END[0]
*173 S1END[1]
*174 S1END[2]
*175 S1END[3]
*176 S2END[0]
*177 S2END[1]
*178 S2END[2]
*179 S2END[3]
*180 S2END[4]
*181 S2END[5]
*182 S2END[6]
*183 S2END[7]
*184 S2MID[0]
*185 S2MID[1]
*186 S2MID[2]
*187 S2MID[3]
*188 S2MID[4]
*189 S2MID[5]
*190 S2MID[6]
*191 S2MID[7]
*192 S4END[0]
*193 S4END[10]
*194 S4END[11]
*195 S4END[12]
*196 S4END[13]
*197 S4END[14]
*198 S4END[15]
*199 S4END[1]
*200 S4END[2]
*201 S4END[3]
*202 S4END[4]
*203 S4END[5]
*204 S4END[6]
*205 S4END[7]
*206 S4END[8]
*207 S4END[9]
*208 SS4END[0]
*209 SS4END[10]
*210 SS4END[11]
*211 SS4END[12]
*212 SS4END[13]
*213 SS4END[14]
*214 SS4END[15]
*215 SS4END[1]
*216 SS4END[2]
*217 SS4END[3]
*218 SS4END[4]
*219 SS4END[5]
*220 SS4END[6]
*221 SS4END[7]
*222 SS4END[8]
*223 SS4END[9]
*224 UserCLK
*225 UserCLKo
*228 Inst_A_IO_1_bidirectional_frame_config_pass\.Q
*229 Inst_B_IO_1_bidirectional_frame_config_pass\.Q
*230 Inst_S_IO_ConfigMem\.Inst_frame0_bit0\.Q
*231 Inst_S_IO_ConfigMem\.Inst_frame0_bit1\.Q
*232 Inst_S_IO_ConfigMem\.Inst_frame0_bit10\.Q
*233 Inst_S_IO_ConfigMem\.Inst_frame0_bit11\.Q
*234 Inst_S_IO_ConfigMem\.Inst_frame0_bit12\.Q
*235 Inst_S_IO_ConfigMem\.Inst_frame0_bit13\.Q
*236 Inst_S_IO_ConfigMem\.Inst_frame0_bit14\.Q
*237 Inst_S_IO_ConfigMem\.Inst_frame0_bit15\.Q
*238 Inst_S_IO_ConfigMem\.Inst_frame0_bit16\.Q
*239 Inst_S_IO_ConfigMem\.Inst_frame0_bit17\.Q
*240 Inst_S_IO_ConfigMem\.Inst_frame0_bit18\.Q
*241 Inst_S_IO_ConfigMem\.Inst_frame0_bit19\.Q
*242 Inst_S_IO_ConfigMem\.Inst_frame0_bit2\.Q
*243 Inst_S_IO_ConfigMem\.Inst_frame0_bit20\.Q
*244 Inst_S_IO_ConfigMem\.Inst_frame0_bit21\.Q
*245 Inst_S_IO_ConfigMem\.Inst_frame0_bit22\.Q
*246 Inst_S_IO_ConfigMem\.Inst_frame0_bit23\.Q
*247 Inst_S_IO_ConfigMem\.Inst_frame0_bit24\.Q
*248 Inst_S_IO_ConfigMem\.Inst_frame0_bit25\.Q
*249 Inst_S_IO_ConfigMem\.Inst_frame0_bit26\.Q
*250 Inst_S_IO_ConfigMem\.Inst_frame0_bit27\.Q
*251 Inst_S_IO_ConfigMem\.Inst_frame0_bit28\.Q
*252 Inst_S_IO_ConfigMem\.Inst_frame0_bit29\.Q
*253 Inst_S_IO_ConfigMem\.Inst_frame0_bit3\.Q
*254 Inst_S_IO_ConfigMem\.Inst_frame0_bit30\.Q
*255 Inst_S_IO_ConfigMem\.Inst_frame0_bit31\.Q
*256 Inst_S_IO_ConfigMem\.Inst_frame0_bit4\.Q
*257 Inst_S_IO_ConfigMem\.Inst_frame0_bit5\.Q
*258 Inst_S_IO_ConfigMem\.Inst_frame0_bit6\.Q
*259 Inst_S_IO_ConfigMem\.Inst_frame0_bit7\.Q
*260 Inst_S_IO_ConfigMem\.Inst_frame0_bit8\.Q
*261 Inst_S_IO_ConfigMem\.Inst_frame0_bit9\.Q
*262 Inst_S_IO_ConfigMem\.Inst_frame1_bit0\.Q
*263 Inst_S_IO_ConfigMem\.Inst_frame1_bit1\.Q
*264 Inst_S_IO_ConfigMem\.Inst_frame1_bit10\.Q
*265 Inst_S_IO_ConfigMem\.Inst_frame1_bit11\.Q
*266 Inst_S_IO_ConfigMem\.Inst_frame1_bit12\.Q
*267 Inst_S_IO_ConfigMem\.Inst_frame1_bit13\.Q
*268 Inst_S_IO_ConfigMem\.Inst_frame1_bit14\.Q
*269 Inst_S_IO_ConfigMem\.Inst_frame1_bit15\.Q
*270 Inst_S_IO_ConfigMem\.Inst_frame1_bit16\.Q
*271 Inst_S_IO_ConfigMem\.Inst_frame1_bit17\.Q
*272 Inst_S_IO_ConfigMem\.Inst_frame1_bit18\.Q
*273 Inst_S_IO_ConfigMem\.Inst_frame1_bit19\.Q
*274 Inst_S_IO_ConfigMem\.Inst_frame1_bit2\.Q
*275 Inst_S_IO_ConfigMem\.Inst_frame1_bit20\.Q
*276 Inst_S_IO_ConfigMem\.Inst_frame1_bit21\.Q
*277 Inst_S_IO_ConfigMem\.Inst_frame1_bit22\.Q
*278 Inst_S_IO_ConfigMem\.Inst_frame1_bit23\.Q
*279 Inst_S_IO_ConfigMem\.Inst_frame1_bit24\.Q
*280 Inst_S_IO_ConfigMem\.Inst_frame1_bit25\.Q
*281 Inst_S_IO_ConfigMem\.Inst_frame1_bit26\.Q
*282 Inst_S_IO_ConfigMem\.Inst_frame1_bit27\.Q
*283 Inst_S_IO_ConfigMem\.Inst_frame1_bit28\.Q
*284 Inst_S_IO_ConfigMem\.Inst_frame1_bit29\.Q
*285 Inst_S_IO_ConfigMem\.Inst_frame1_bit3\.Q
*286 Inst_S_IO_ConfigMem\.Inst_frame1_bit30\.Q
*287 Inst_S_IO_ConfigMem\.Inst_frame1_bit31\.Q
*288 Inst_S_IO_ConfigMem\.Inst_frame1_bit4\.Q
*289 Inst_S_IO_ConfigMem\.Inst_frame1_bit5\.Q
*290 Inst_S_IO_ConfigMem\.Inst_frame1_bit6\.Q
*291 Inst_S_IO_ConfigMem\.Inst_frame1_bit7\.Q
*292 Inst_S_IO_ConfigMem\.Inst_frame1_bit8\.Q
*293 Inst_S_IO_ConfigMem\.Inst_frame1_bit9\.Q
*294 Inst_S_IO_ConfigMem\.Inst_frame2_bit0\.Q
*295 Inst_S_IO_ConfigMem\.Inst_frame2_bit1\.Q
*296 Inst_S_IO_ConfigMem\.Inst_frame2_bit10\.Q
*297 Inst_S_IO_ConfigMem\.Inst_frame2_bit11\.Q
*298 Inst_S_IO_ConfigMem\.Inst_frame2_bit12\.Q
*299 Inst_S_IO_ConfigMem\.Inst_frame2_bit13\.Q
*300 Inst_S_IO_ConfigMem\.Inst_frame2_bit14\.Q
*301 Inst_S_IO_ConfigMem\.Inst_frame2_bit15\.Q
*302 Inst_S_IO_ConfigMem\.Inst_frame2_bit16\.Q
*303 Inst_S_IO_ConfigMem\.Inst_frame2_bit17\.Q
*304 Inst_S_IO_ConfigMem\.Inst_frame2_bit18\.Q
*305 Inst_S_IO_ConfigMem\.Inst_frame2_bit19\.Q
*306 Inst_S_IO_ConfigMem\.Inst_frame2_bit2\.Q
*307 Inst_S_IO_ConfigMem\.Inst_frame2_bit20\.Q
*308 Inst_S_IO_ConfigMem\.Inst_frame2_bit21\.Q
*309 Inst_S_IO_ConfigMem\.Inst_frame2_bit22\.Q
*310 Inst_S_IO_ConfigMem\.Inst_frame2_bit23\.Q
*311 Inst_S_IO_ConfigMem\.Inst_frame2_bit24\.Q
*312 Inst_S_IO_ConfigMem\.Inst_frame2_bit25\.Q
*313 Inst_S_IO_ConfigMem\.Inst_frame2_bit26\.Q
*314 Inst_S_IO_ConfigMem\.Inst_frame2_bit27\.Q
*315 Inst_S_IO_ConfigMem\.Inst_frame2_bit28\.Q
*316 Inst_S_IO_ConfigMem\.Inst_frame2_bit29\.Q
*317 Inst_S_IO_ConfigMem\.Inst_frame2_bit3\.Q
*318 Inst_S_IO_ConfigMem\.Inst_frame2_bit30\.Q
*319 Inst_S_IO_ConfigMem\.Inst_frame2_bit31\.Q
*320 Inst_S_IO_ConfigMem\.Inst_frame2_bit4\.Q
*321 Inst_S_IO_ConfigMem\.Inst_frame2_bit5\.Q
*322 Inst_S_IO_ConfigMem\.Inst_frame2_bit6\.Q
*323 Inst_S_IO_ConfigMem\.Inst_frame2_bit7\.Q
*324 Inst_S_IO_ConfigMem\.Inst_frame2_bit8\.Q
*325 Inst_S_IO_ConfigMem\.Inst_frame2_bit9\.Q
*326 Inst_S_IO_ConfigMem\.Inst_frame3_bit14\.Q
*327 Inst_S_IO_ConfigMem\.Inst_frame3_bit15\.Q
*328 Inst_S_IO_ConfigMem\.Inst_frame3_bit16\.Q
*329 Inst_S_IO_ConfigMem\.Inst_frame3_bit17\.Q
*330 Inst_S_IO_ConfigMem\.Inst_frame3_bit18\.Q
*331 Inst_S_IO_ConfigMem\.Inst_frame3_bit19\.Q
*332 Inst_S_IO_ConfigMem\.Inst_frame3_bit20\.Q
*333 Inst_S_IO_ConfigMem\.Inst_frame3_bit21\.Q
*334 Inst_S_IO_ConfigMem\.Inst_frame3_bit22\.Q
*335 Inst_S_IO_ConfigMem\.Inst_frame3_bit23\.Q
*336 Inst_S_IO_ConfigMem\.Inst_frame3_bit24\.Q
*337 Inst_S_IO_ConfigMem\.Inst_frame3_bit25\.Q
*338 Inst_S_IO_ConfigMem\.Inst_frame3_bit26\.Q
*339 Inst_S_IO_ConfigMem\.Inst_frame3_bit27\.Q
*340 Inst_S_IO_ConfigMem\.Inst_frame3_bit28\.Q
*341 Inst_S_IO_ConfigMem\.Inst_frame3_bit29\.Q
*342 Inst_S_IO_ConfigMem\.Inst_frame3_bit30\.Q
*343 Inst_S_IO_ConfigMem\.Inst_frame3_bit31\.Q
*344 Inst_S_IO_switch_matrix\.N1BEG0
*345 Inst_S_IO_switch_matrix\.N1BEG1
*346 Inst_S_IO_switch_matrix\.N1BEG2
*347 Inst_S_IO_switch_matrix\.N1BEG3
*348 Inst_S_IO_switch_matrix\.N2BEG0
*349 Inst_S_IO_switch_matrix\.N2BEG1
*350 Inst_S_IO_switch_matrix\.N2BEG2
*351 Inst_S_IO_switch_matrix\.N2BEG3
*352 Inst_S_IO_switch_matrix\.N2BEG4
*353 Inst_S_IO_switch_matrix\.N2BEG5
*354 Inst_S_IO_switch_matrix\.N2BEG6
*355 Inst_S_IO_switch_matrix\.N2BEG7
*356 Inst_S_IO_switch_matrix\.N2BEGb0
*357 Inst_S_IO_switch_matrix\.N2BEGb1
*358 Inst_S_IO_switch_matrix\.N2BEGb2
*359 Inst_S_IO_switch_matrix\.N2BEGb3
*360 Inst_S_IO_switch_matrix\.N2BEGb4
*361 Inst_S_IO_switch_matrix\.N2BEGb5
*362 Inst_S_IO_switch_matrix\.N2BEGb6
*363 Inst_S_IO_switch_matrix\.N2BEGb7
*364 Inst_S_IO_switch_matrix\.N4BEG0
*365 Inst_S_IO_switch_matrix\.N4BEG1
*366 Inst_S_IO_switch_matrix\.N4BEG10
*367 Inst_S_IO_switch_matrix\.N4BEG11
*368 Inst_S_IO_switch_matrix\.N4BEG12
*369 Inst_S_IO_switch_matrix\.N4BEG13
*370 Inst_S_IO_switch_matrix\.N4BEG14
*371 Inst_S_IO_switch_matrix\.N4BEG15
*372 Inst_S_IO_switch_matrix\.N4BEG2
*373 Inst_S_IO_switch_matrix\.N4BEG3
*374 Inst_S_IO_switch_matrix\.N4BEG4
*375 Inst_S_IO_switch_matrix\.N4BEG5
*376 Inst_S_IO_switch_matrix\.N4BEG6
*377 Inst_S_IO_switch_matrix\.N4BEG7
*378 Inst_S_IO_switch_matrix\.N4BEG8
*379 Inst_S_IO_switch_matrix\.N4BEG9
*380 Inst_S_IO_switch_matrix\.NN4BEG0
*381 Inst_S_IO_switch_matrix\.NN4BEG1
*382 Inst_S_IO_switch_matrix\.NN4BEG10
*383 Inst_S_IO_switch_matrix\.NN4BEG11
*384 Inst_S_IO_switch_matrix\.NN4BEG12
*385 Inst_S_IO_switch_matrix\.NN4BEG13
*386 Inst_S_IO_switch_matrix\.NN4BEG14
*387 Inst_S_IO_switch_matrix\.NN4BEG15
*388 Inst_S_IO_switch_matrix\.NN4BEG2
*389 Inst_S_IO_switch_matrix\.NN4BEG3
*390 Inst_S_IO_switch_matrix\.NN4BEG4
*391 Inst_S_IO_switch_matrix\.NN4BEG5
*392 Inst_S_IO_switch_matrix\.NN4BEG6
*393 Inst_S_IO_switch_matrix\.NN4BEG7
*394 Inst_S_IO_switch_matrix\.NN4BEG8
*395 Inst_S_IO_switch_matrix\.NN4BEG9
*396 UserCLK_regs
*397 _000_
*398 _001_
*399 _002_
*400 _003_
*401 _004_
*402 _005_
*403 _006_
*404 _007_
*405 _008_
*406 _009_
*407 _010_
*408 _011_
*409 _012_
*410 _013_
*411 _014_
*412 _015_
*413 _016_
*414 _017_
*415 _018_
*416 _019_
*417 _020_
*418 _021_
*419 _022_
*420 _023_
*421 _024_
*422 _025_
*423 _026_
*424 _027_
*425 _028_
*426 _029_
*427 _030_
*428 _031_
*429 clknet_0_UserCLK
*430 clknet_0_UserCLK_regs
*431 clknet_1_0__leaf_UserCLK
*432 clknet_1_0__leaf_UserCLK_regs
*433 clknet_1_1__leaf_UserCLK_regs
*434 net1
*435 net10
*436 net100
*437 net101
*438 net102
*439 net103
*440 net104
*441 net105
*442 net106
*443 net107
*444 net108
*445 net109
*446 net11
*447 net110
*448 net111
*449 net112
*450 net113
*451 net114
*452 net115
*453 net116
*454 net117
*455 net118
*456 net119
*457 net12
*458 net120
*459 net121
*460 net122
*461 net123
*462 net124
*463 net125
*464 net126
*465 net127
*466 net128
*467 net129
*468 net13
*469 net130
*470 net131
*471 net132
*472 net133
*473 net134
*474 net135
*475 net136
*476 net137
*477 net138
*478 net139
*479 net14
*480 net140
*481 net141
*482 net142
*483 net143
*484 net144
*485 net145
*486 net146
*487 net147
*488 net148
*489 net149
*490 net15
*491 net150
*492 net151
*493 net152
*494 net153
*495 net154
*496 net155
*497 net156
*498 net157
*499 net158
*500 net159
*501 net16
*502 net160
*503 net161
*504 net162
*505 net163
*506 net164
*507 net165
*508 net166
*509 net167
*510 net168
*511 net169
*512 net17
*513 net170
*514 net171
*515 net172
*516 net173
*517 net174
*518 net175
*519 net176
*520 net177
*521 net178
*522 net179
*523 net18
*524 net180
*525 net181
*526 net182
*527 net183
*528 net184
*529 net185
*530 net186
*531 net187
*532 net188
*533 net189
*534 net19
*535 net190
*536 net191
*537 net192
*538 net193
*539 net194
*540 net195
*541 net196
*542 net197
*543 net198
*544 net199
*545 net2
*546 net20
*547 net200
*548 net201
*549 net202
*550 net203
*551 net204
*552 net205
*553 net206
*554 net207
*555 net208
*556 net209
*557 net21
*558 net210
*559 net211
*560 net212
*561 net213
*562 net214
*563 net215
*564 net216
*565 net217
*566 net218
*567 net219
*568 net22
*569 net23
*570 net24
*571 net25
*572 net26
*573 net27
*574 net28
*575 net29
*576 net3
*577 net30
*578 net31
*579 net32
*580 net33
*581 net34
*582 net35
*583 net36
*584 net37
*585 net38
*586 net39
*587 net4
*588 net40
*589 net41
*590 net42
*591 net43
*592 net44
*593 net45
*594 net46
*595 net47
*596 net48
*597 net49
*598 net5
*599 net50
*600 net51
*601 net52
*602 net53
*603 net54
*604 net55
*605 net56
*606 net57
*607 net58
*608 net59
*609 net6
*610 net60
*611 net61
*612 net62
*613 net63
*614 net64
*615 net65
*616 net66
*617 net67
*618 net68
*619 net69
*620 net7
*621 net70
*622 net71
*623 net72
*624 net73
*625 net74
*626 net75
*627 net76
*628 net77
*629 net78
*630 net79
*631 net8
*632 net80
*633 net81
*634 net82
*635 net83
*636 net84
*637 net85
*638 net86
*639 net87
*640 net88
*641 net89
*642 net9
*643 net90
*644 net91
*645 net92
*646 net93
*647 net94
*648 net95
*649 net96
*650 net97
*651 net98
*652 net99
*653 ANTENNA_1
*654 ANTENNA_2
*655 ANTENNA_3
*656 ANTENNA_4
*657 ANTENNA_5
*658 ANTENNA_6
*659 ANTENNA_7
*660 ANTENNA_8
*661 FILLER_0_133
*662 FILLER_0_138
*663 FILLER_0_149
*664 FILLER_0_159
*665 FILLER_0_167
*666 FILLER_0_173
*667 FILLER_0_191
*668 FILLER_0_195
*669 FILLER_0_221
*670 FILLER_0_225
*671 FILLER_0_243
*672 FILLER_0_251
*673 FILLER_0_253
*674 FILLER_0_27
*675 FILLER_0_271
*676 FILLER_0_279
*677 FILLER_0_281
*678 FILLER_0_306
*679 FILLER_0_309
*680 FILLER_0_317
*681 FILLER_0_33
*682 FILLER_0_330
*683 FILLER_0_349
*684 FILLER_0_360
*685 FILLER_0_37
*686 FILLER_0_389
*687 FILLER_0_393
*688 FILLER_0_405
*689 FILLER_0_417
*690 FILLER_0_42
*691 FILLER_0_421
*692 FILLER_0_433
*693 FILLER_0_441
*694 FILLER_0_449
*695 FILLER_0_81
*696 FILLER_10_135
*697 FILLER_10_190
*698 FILLER_10_23
*699 FILLER_10_251
*700 FILLER_10_307
*701 FILLER_10_312
*702 FILLER_10_359
*703 FILLER_10_373
*704 FILLER_10_419
*705 FILLER_10_437
*706 FILLER_10_73
*707 FILLER_10_97
*708 FILLER_11_111
*709 FILLER_11_125
*710 FILLER_11_13
*711 FILLER_11_169
*712 FILLER_11_197
*713 FILLER_11_202
*714 FILLER_11_279
*715 FILLER_11_29
*716 FILLER_11_307
*717 FILLER_11_309
*718 FILLER_11_341
*719 FILLER_11_363
*720 FILLER_11_419
*721 FILLER_11_441
*722 FILLER_11_449
*723 FILLER_11_57
*724 FILLER_11_85
*725 FILLER_1_155
*726 FILLER_1_177
*727 FILLER_1_21
*728 FILLER_1_223
*729 FILLER_1_245
*730 FILLER_1_274
*731 FILLER_1_281
*732 FILLER_1_286
*733 FILLER_1_311
*734 FILLER_1_318
*735 FILLER_1_33
*736 FILLER_1_331
*737 FILLER_1_335
*738 FILLER_1_337
*739 FILLER_1_382
*740 FILLER_1_390
*741 FILLER_1_393
*742 FILLER_1_408
*743 FILLER_1_412
*744 FILLER_1_424
*745 FILLER_1_430
*746 FILLER_1_434
*747 FILLER_1_441
*748 FILLER_1_449
*749 FILLER_1_45
*750 FILLER_1_53
*751 FILLER_1_73
*752 FILLER_1_95
*753 FILLER_2_101
*754 FILLER_2_130
*755 FILLER_2_138
*756 FILLER_2_144
*757 FILLER_2_150
*758 FILLER_2_168
*759 FILLER_2_176
*760 FILLER_2_19
*761 FILLER_2_190
*762 FILLER_2_197
*763 FILLER_2_213
*764 FILLER_2_228
*765 FILLER_2_246
*766 FILLER_2_253
*767 FILLER_2_26
*768 FILLER_2_262
*769 FILLER_2_266
*770 FILLER_2_288
*771 FILLER_2_29
*772 FILLER_2_294
*773 FILLER_2_307
*774 FILLER_2_321
*775 FILLER_2_329
*776 FILLER_2_355
*777 FILLER_2_363
*778 FILLER_2_368
*779 FILLER_2_37
*780 FILLER_2_383
*781 FILLER_2_391
*782 FILLER_2_414
*783 FILLER_2_421
*784 FILLER_2_433
*785 FILLER_2_76
*786 FILLER_3_109
*787 FILLER_3_113
*788 FILLER_3_122
*789 FILLER_3_147
*790 FILLER_3_159
*791 FILLER_3_167
*792 FILLER_3_193
*793 FILLER_3_201
*794 FILLER_3_234
*795 FILLER_3_258
*796 FILLER_3_265
*797 FILLER_3_274
*798 FILLER_3_279
*799 FILLER_3_290
*800 FILLER_3_294
*801 FILLER_3_307
*802 FILLER_3_322
*803 FILLER_3_334
*804 FILLER_3_337
*805 FILLER_3_37
*806 FILLER_3_382
*807 FILLER_3_386
*808 FILLER_3_390
*809 FILLER_3_393
*810 FILLER_3_401
*811 FILLER_3_413
*812 FILLER_3_425
*813 FILLER_3_437
*814 FILLER_3_452
*815 FILLER_3_52
*816 FILLER_3_57
*817 FILLER_3_61
*818 FILLER_4_11
*819 FILLER_4_113
*820 FILLER_4_159
*821 FILLER_4_164
*822 FILLER_4_179
*823 FILLER_4_195
*824 FILLER_4_230
*825 FILLER_4_253
*826 FILLER_4_26
*827 FILLER_4_291
*828 FILLER_4_307
*829 FILLER_4_351
*830 FILLER_4_357
*831 FILLER_4_362
*832 FILLER_4_365
*833 FILLER_4_372
*834 FILLER_4_380
*835 FILLER_4_41
*836 FILLER_4_418
*837 FILLER_4_421
*838 FILLER_4_433
*839 FILLER_4_445
*840 FILLER_4_453
*841 FILLER_4_66
*842 FILLER_5_134
*843 FILLER_5_145
*844 FILLER_5_199
*845 FILLER_5_235
*846 FILLER_5_258
*847 FILLER_5_275
*848 FILLER_5_279
*849 FILLER_5_296
*850 FILLER_5_300
*851 FILLER_5_325
*852 FILLER_5_352
*853 FILLER_5_378
*854 FILLER_5_39
*855 FILLER_5_405
*856 FILLER_5_418
*857 FILLER_5_430
*858 FILLER_5_442
*859 FILLER_5_449
*860 FILLER_5_453
*861 FILLER_5_52
*862 FILLER_5_72
*863 FILLER_5_95
*864 FILLER_6_139
*865 FILLER_6_150
*866 FILLER_6_173
*867 FILLER_6_230
*868 FILLER_6_242
*869 FILLER_6_249
*870 FILLER_6_26
*871 FILLER_6_265
*872 FILLER_6_302
*873 FILLER_6_312
*874 FILLER_6_320
*875 FILLER_6_33
*876 FILLER_6_358
*877 FILLER_6_389
*878 FILLER_6_393
*879 FILLER_6_397
*880 FILLER_6_418
*881 FILLER_6_421
*882 FILLER_6_433
*883 FILLER_6_445
*884 FILLER_6_453
*885 FILLER_6_7
*886 FILLER_7_141
*887 FILLER_7_163
*888 FILLER_7_167
*889 FILLER_7_169
*890 FILLER_7_177
*891 FILLER_7_195
*892 FILLER_7_231
*893 FILLER_7_258
*894 FILLER_7_293
*895 FILLER_7_3
*896 FILLER_7_344
*897 FILLER_7_390
*898 FILLER_7_393
*899 FILLER_7_40
*900 FILLER_7_431
*901 FILLER_7_443
*902 FILLER_7_447
*903 FILLER_7_449
*904 FILLER_8_119
*905 FILLER_8_141
*906 FILLER_8_171
*907 FILLER_8_230
*908 FILLER_8_244
*909 FILLER_8_25
*910 FILLER_8_286
*911 FILLER_8_33
*912 FILLER_8_421
*913 FILLER_8_433
*914 FILLER_8_445
*915 FILLER_8_451
*916 FILLER_8_57
*917 FILLER_8_70
*918 FILLER_8_85
*919 FILLER_9_149
*920 FILLER_9_223
*921 FILLER_9_225
*922 FILLER_9_25
*923 FILLER_9_274
*924 FILLER_9_295
*925 FILLER_9_317
*926 FILLER_9_33
*927 FILLER_9_334
*928 FILLER_9_433
*929 FILLER_9_449
*930 FILLER_9_46
*931 FILLER_9_57
*932 FILLER_9_92
*933 PHY_EDGE_ROW_0_Left_12
*934 PHY_EDGE_ROW_0_Right_0
*935 PHY_EDGE_ROW_10_Left_22
*936 PHY_EDGE_ROW_10_Right_10
*937 PHY_EDGE_ROW_11_Left_23
*938 PHY_EDGE_ROW_11_Right_11
*939 PHY_EDGE_ROW_1_Left_13
*940 PHY_EDGE_ROW_1_Right_1
*941 PHY_EDGE_ROW_2_Left_14
*942 PHY_EDGE_ROW_2_Right_2
*943 PHY_EDGE_ROW_3_Left_15
*944 PHY_EDGE_ROW_3_Right_3
*945 PHY_EDGE_ROW_4_Left_16
*946 PHY_EDGE_ROW_4_Right_4
*947 PHY_EDGE_ROW_5_Left_17
*948 PHY_EDGE_ROW_5_Right_5
*949 PHY_EDGE_ROW_6_Left_18
*950 PHY_EDGE_ROW_6_Right_6
*951 PHY_EDGE_ROW_7_Left_19
*952 PHY_EDGE_ROW_7_Right_7
*953 PHY_EDGE_ROW_8_Left_20
*954 PHY_EDGE_ROW_8_Right_8
*955 PHY_EDGE_ROW_9_Left_21
*956 PHY_EDGE_ROW_9_Right_9
*957 S_IO_205
*958 TAP_TAPCELL_ROW_0_24
*959 TAP_TAPCELL_ROW_0_25
*960 TAP_TAPCELL_ROW_0_26
*961 TAP_TAPCELL_ROW_0_27
*962 TAP_TAPCELL_ROW_0_28
*963 TAP_TAPCELL_ROW_0_29
*964 TAP_TAPCELL_ROW_0_30
*965 TAP_TAPCELL_ROW_0_31
*966 TAP_TAPCELL_ROW_0_32
*967 TAP_TAPCELL_ROW_0_33
*968 TAP_TAPCELL_ROW_0_34
*969 TAP_TAPCELL_ROW_0_35
*970 TAP_TAPCELL_ROW_0_36
*971 TAP_TAPCELL_ROW_0_37
*972 TAP_TAPCELL_ROW_0_38
*973 TAP_TAPCELL_ROW_0_39
*974 TAP_TAPCELL_ROW_10_112
*975 TAP_TAPCELL_ROW_10_113
*976 TAP_TAPCELL_ROW_10_114
*977 TAP_TAPCELL_ROW_10_115
*978 TAP_TAPCELL_ROW_10_116
*979 TAP_TAPCELL_ROW_10_117
*980 TAP_TAPCELL_ROW_10_118
*981 TAP_TAPCELL_ROW_10_119
*982 TAP_TAPCELL_ROW_11_120
*983 TAP_TAPCELL_ROW_11_121
*984 TAP_TAPCELL_ROW_11_122
*985 TAP_TAPCELL_ROW_11_123
*986 TAP_TAPCELL_ROW_11_124
*987 TAP_TAPCELL_ROW_11_125
*988 TAP_TAPCELL_ROW_11_126
*989 TAP_TAPCELL_ROW_11_127
*990 TAP_TAPCELL_ROW_11_128
*991 TAP_TAPCELL_ROW_11_129
*992 TAP_TAPCELL_ROW_11_130
*993 TAP_TAPCELL_ROW_11_131
*994 TAP_TAPCELL_ROW_11_132
*995 TAP_TAPCELL_ROW_11_133
*996 TAP_TAPCELL_ROW_11_134
*997 TAP_TAPCELL_ROW_11_135
*998 TAP_TAPCELL_ROW_1_40
*999 TAP_TAPCELL_ROW_1_41
*1000 TAP_TAPCELL_ROW_1_42
*1001 TAP_TAPCELL_ROW_1_43
*1002 TAP_TAPCELL_ROW_1_44
*1003 TAP_TAPCELL_ROW_1_45
*1004 TAP_TAPCELL_ROW_1_46
*1005 TAP_TAPCELL_ROW_1_47
*1006 TAP_TAPCELL_ROW_2_48
*1007 TAP_TAPCELL_ROW_2_49
*1008 TAP_TAPCELL_ROW_2_50
*1009 TAP_TAPCELL_ROW_2_51
*1010 TAP_TAPCELL_ROW_2_52
*1011 TAP_TAPCELL_ROW_2_53
*1012 TAP_TAPCELL_ROW_2_54
*1013 TAP_TAPCELL_ROW_2_55
*1014 TAP_TAPCELL_ROW_3_56
*1015 TAP_TAPCELL_ROW_3_57
*1016 TAP_TAPCELL_ROW_3_58
*1017 TAP_TAPCELL_ROW_3_59
*1018 TAP_TAPCELL_ROW_3_60
*1019 TAP_TAPCELL_ROW_3_61
*1020 TAP_TAPCELL_ROW_3_62
*1021 TAP_TAPCELL_ROW_3_63
*1022 TAP_TAPCELL_ROW_4_64
*1023 TAP_TAPCELL_ROW_4_65
*1024 TAP_TAPCELL_ROW_4_66
*1025 TAP_TAPCELL_ROW_4_67
*1026 TAP_TAPCELL_ROW_4_68
*1027 TAP_TAPCELL_ROW_4_69
*1028 TAP_TAPCELL_ROW_4_70
*1029 TAP_TAPCELL_ROW_4_71
*1030 TAP_TAPCELL_ROW_5_72
*1031 TAP_TAPCELL_ROW_5_73
*1032 TAP_TAPCELL_ROW_5_74
*1033 TAP_TAPCELL_ROW_5_75
*1034 TAP_TAPCELL_ROW_5_76
*1035 TAP_TAPCELL_ROW_5_77
*1036 TAP_TAPCELL_ROW_5_78
*1037 TAP_TAPCELL_ROW_5_79
*1038 TAP_TAPCELL_ROW_6_80
*1039 TAP_TAPCELL_ROW_6_81
*1040 TAP_TAPCELL_ROW_6_82
*1041 TAP_TAPCELL_ROW_6_83
*1042 TAP_TAPCELL_ROW_6_84
*1043 TAP_TAPCELL_ROW_6_85
*1044 TAP_TAPCELL_ROW_6_86
*1045 TAP_TAPCELL_ROW_6_87
*1046 TAP_TAPCELL_ROW_7_88
*1047 TAP_TAPCELL_ROW_7_89
*1048 TAP_TAPCELL_ROW_7_90
*1049 TAP_TAPCELL_ROW_7_91
*1050 TAP_TAPCELL_ROW_7_92
*1051 TAP_TAPCELL_ROW_7_93
*1052 TAP_TAPCELL_ROW_7_94
*1053 TAP_TAPCELL_ROW_7_95
*1054 TAP_TAPCELL_ROW_8_100
*1055 TAP_TAPCELL_ROW_8_101
*1056 TAP_TAPCELL_ROW_8_102
*1057 TAP_TAPCELL_ROW_8_103
*1058 TAP_TAPCELL_ROW_8_96
*1059 TAP_TAPCELL_ROW_8_97
*1060 TAP_TAPCELL_ROW_8_98
*1061 TAP_TAPCELL_ROW_8_99
*1062 TAP_TAPCELL_ROW_9_104
*1063 TAP_TAPCELL_ROW_9_105
*1064 TAP_TAPCELL_ROW_9_106
*1065 TAP_TAPCELL_ROW_9_107
*1066 TAP_TAPCELL_ROW_9_108
*1067 TAP_TAPCELL_ROW_9_109
*1068 TAP_TAPCELL_ROW_9_110
*1069 TAP_TAPCELL_ROW_9_111
*1070 _032_
*1071 _033_
*1072 _034_
*1073 _035_
*1074 _036_
*1075 _037_
*1076 _038_
*1077 _039_
*1078 _040_
*1079 _041_
*1080 _042_
*1081 _043_
*1082 _044_
*1083 _045_
*1084 _046_
*1085 _047_
*1086 _048_
*1087 _049_
*1088 _050_
*1089 _051_
*1090 _052_
*1091 _053_
*1092 _054_
*1093 _055_
*1094 _056_
*1095 _057_
*1096 _058_
*1097 _059_
*1098 _060_
*1099 _061_
*1100 _062_
*1101 _063_
*1102 _064_
*1103 _065_
*1104 _066_
*1105 _067_
*1106 _068_
*1107 _069_
*1108 _070_
*1109 _071_
*1110 _072_
*1111 _073_
*1112 _074_
*1113 _075_
*1114 _076_
*1115 _077_
*1116 _078_
*1117 _079_
*1118 _080_
*1119 _081_
*1120 _082_
*1121 _083_
*1122 _084_
*1123 _085_
*1124 _086_
*1125 _087_
*1126 _088_
*1127 _089_
*1128 _090_
*1129 _091_
*1130 _092_
*1131 _093_
*1132 _094_
*1133 _095_
*1134 _096_
*1135 _097_
*1136 _098_
*1137 _099_
*1138 _100_
*1139 _101_
*1140 _102_
*1141 _103_
*1142 _104_
*1143 _105_
*1144 _106_
*1145 _107_
*1146 _108_
*1147 _109_
*1148 _110_
*1149 _111_
*1150 _112_
*1151 _113_
*1152 _114_
*1153 _115_
*1154 _116_
*1155 _117_
*1156 _118_
*1157 _119_
*1158 _120_
*1159 _121_
*1160 _122_
*1161 _123_
*1162 _124_
*1163 _125_
*1164 _126_
*1165 _127_
*1166 _128_
*1167 _129_
*1168 _130_
*1169 _131_
*1170 _132_
*1171 _133_
*1172 _134_
*1173 _135_
*1174 _136_
*1175 _137_
*1176 _138_
*1177 _139_
*1178 _140_
*1179 _141_
*1180 _142_
*1181 _143_
*1182 _144_
*1183 _145_
*1184 _146_
*1185 _147_
*1186 _148_
*1187 _149_
*1188 _150_
*1189 _151_
*1190 _152_
*1191 _153_
*1192 _154_
*1193 _155_
*1194 _156_
*1195 _157_
*1196 _158_
*1197 _159_
*1198 _160_
*1199 _161_
*1200 _162_
*1201 _163_
*1202 _164_
*1203 _165_
*1204 _166_
*1205 _167_
*1206 _168_
*1207 _169_
*1208 _170_
*1209 _171_
*1210 _172_
*1211 _173_
*1212 _174_
*1213 _175_
*1214 _176_
*1215 _177_
*1216 _178_
*1217 _179_
*1218 _180_
*1219 _181_
*1220 _182_
*1221 _183_
*1222 _184_
*1223 _185_
*1224 _186_
*1225 _187_
*1226 _188_
*1227 _189_
*1228 _190_
*1229 _191_
*1230 _192_
*1231 _193_
*1232 _194_
*1233 _195_
*1234 _196_
*1235 _197_
*1236 _198_
*1237 _199_
*1238 _200_
*1239 _201_
*1240 _202_
*1241 _203_
*1242 _204_
*1243 _205_
*1244 _206_
*1245 _207_
*1246 _208_
*1247 _209_
*1248 _210_
*1249 _211_
*1250 _212_
*1251 _213_
*1252 _214_
*1253 _215_
*1254 _216_
*1255 _217_
*1256 _218_
*1257 _219_
*1258 _220_
*1259 _221_
*1260 _222_
*1261 _223_
*1262 _224_
*1263 _225_
*1264 _226_
*1265 _227_
*1266 _228_
*1267 _229_
*1268 _230_
*1269 _231_
*1270 _232_
*1271 _233_
*1272 _234_
*1273 _235_
*1274 _236_
*1275 _237_
*1276 _238_
*1277 _239_
*1278 _240_
*1279 _241_
*1280 _242_
*1281 _243_
*1282 _245_
*1283 _246_
*1284 _247_
*1285 _248_
*1286 _249_
*1287 _250_
*1288 _251_
*1289 _252_
*1290 _253_
*1291 _254_
*1292 _255_
*1293 _256_
*1294 _257_
*1295 _258_
*1296 _259_
*1297 _260_
*1298 _261_
*1299 _262_
*1300 _263_
*1301 _264_
*1302 _265_
*1303 _266_
*1304 _267_
*1305 _268_
*1306 _269_
*1307 _270_
*1308 _271_
*1309 _272_
*1310 _273_
*1311 _274_
*1312 _275_
*1313 _276_
*1314 _277_
*1315 _278_
*1316 _279_
*1317 _280_
*1318 _281_
*1319 _282_
*1320 _283_
*1321 _284_
*1322 _285_
*1323 _286_
*1324 _287_
*1325 _288_
*1326 _289_
*1327 _290_
*1328 _291_
*1329 _292_
*1330 _293_
*1331 _294_
*1332 _295_
*1333 _296_
*1334 _297_
*1335 _298_
*1336 _299_
*1337 _300_
*1338 _301_
*1339 _302_
*1340 _303_
*1341 _304_
*1342 _305_
*1343 _306_
*1344 _307_
*1345 _308_
*1346 _309_
*1347 _310_
*1348 _311_
*1349 _312_
*1350 _313_
*1351 _314_
*1352 _315_
*1353 _316_
*1354 _317_
*1355 _318_
*1356 _319_
*1357 _320_
*1358 _321_
*1359 _322_
*1360 _323_
*1361 _324_
*1362 _325_
*1363 _326_
*1364 _327_
*1365 _328_
*1366 _329_
*1367 _330_
*1368 _331_
*1369 _332_
*1370 _333_
*1371 _334_
*1372 _335_
*1373 _336_
*1374 _337_
*1375 _338_
*1376 _339_
*1377 _340_
*1378 _341_
*1379 _342_
*1380 _343_
*1381 _344_
*1382 _345_
*1383 _346_
*1384 _347_
*1385 _348_
*1386 _349_
*1387 clkbuf_0_UserCLK
*1388 clkbuf_0_UserCLK_regs
*1389 clkbuf_1_0__f_UserCLK
*1390 clkbuf_1_0__f_UserCLK_regs
*1391 clkbuf_1_1__f_UserCLK_regs
*1392 clkbuf_regs_0_UserCLK
*1393 fanout48
*1394 fanout49
*1395 fanout50
*1396 fanout51
*1397 fanout52
*1398 fanout53
*1399 fanout54
*1400 fanout55
*1401 fanout56
*1402 fanout57
*1403 fanout58
*1404 fanout59
*1405 fanout60
*1406 fanout61
*1407 fanout62
*1408 input1
*1409 input10
*1410 input11
*1411 input12
*1412 input13
*1413 input14
*1414 input15
*1415 input16
*1416 input17
*1417 input18
*1418 input19
*1419 input2
*1420 input20
*1421 input21
*1422 input22
*1423 input23
*1424 input24
*1425 input25
*1426 input26
*1427 input27
*1428 input28
*1429 input29
*1430 input3
*1431 input30
*1432 input31
*1433 input32
*1434 input33
*1435 input34
*1436 input35
*1437 input36
*1438 input37
*1439 input38
*1440 input39
*1441 input4
*1442 input40
*1443 input41
*1444 input42
*1445 input43
*1446 input44
*1447 input45
*1448 input46
*1449 input47
*1450 input48
*1451 input49
*1452 input5
*1453 input50
*1454 input51
*1455 input52
*1456 input53
*1457 input54
*1458 input55
*1459 input56
*1460 input57
*1461 input58
*1462 input59
*1463 input6
*1464 input60
*1465 input61
*1466 input62
*1467 input63
*1468 input64
*1469 input65
*1470 input66
*1471 input67
*1472 input68
*1473 input69
*1474 input7
*1475 input70
*1476 input71
*1477 input72
*1478 input73
*1479 input74
*1480 input75
*1481 input76
*1482 input77
*1483 input78
*1484 input79
*1485 input8
*1486 input80
*1487 input81
*1488 input82
*1489 input83
*1490 input84
*1491 input85
*1492 input86
*1493 input87
*1494 input9
*1495 output100
*1496 output101
*1497 output102
*1498 output103
*1499 output104
*1500 output105
*1501 output106
*1502 output107
*1503 output108
*1504 output109
*1505 output110
*1506 output111
*1507 output112
*1508 output113
*1509 output114
*1510 output115
*1511 output116
*1512 output117
*1513 output118
*1514 output119
*1515 output120
*1516 output121
*1517 output122
*1518 output123
*1519 output124
*1520 output125
*1521 output126
*1522 output127
*1523 output128
*1524 output129
*1525 output130
*1526 output131
*1527 output132
*1528 output133
*1529 output134
*1530 output135
*1531 output136
*1532 output137
*1533 output138
*1534 output139
*1535 output140
*1536 output141
*1537 output142
*1538 output143
*1539 output144
*1540 output145
*1541 output146
*1542 output147
*1543 output148
*1544 output149
*1545 output150
*1546 output151
*1547 output152
*1548 output153
*1549 output154
*1550 output155
*1551 output156
*1552 output157
*1553 output158
*1554 output159
*1555 output160
*1556 output161
*1557 output162
*1558 output163
*1559 output164
*1560 output165
*1561 output166
*1562 output167
*1563 output168
*1564 output169
*1565 output170
*1566 output171
*1567 output172
*1568 output173
*1569 output174
*1570 output175
*1571 output176
*1572 output177
*1573 output178