*SPEF "ieee 1481-1999"
*DESIGN "N_IO"
*DATE "16:46:25 Thursday April 03, 2025"
*VENDOR "The OpenROAD Project"
*PROGRAM "OpenROAD"
*VERSION "87af90f72f3f9be1fdfa1d886f0dd8d8b8f34694"
*DESIGN_FLOW "NAME_SCOPE LOCAL" "PIN_CAP NONE"
*DIVIDER /
*DELIMITER :
*BUS_DELIMITER []
*T_UNIT 1 NS
*C_UNIT 1 PF
*R_UNIT 1 OHM
*L_UNIT 1 HENRY

*NAME_MAP
*1 A_I_top
*2 A_O_top
*3 A_T_top
*4 A_config_C_bit0
*5 A_config_C_bit1
*6 A_config_C_bit2
*7 A_config_C_bit3
*8 B_I_top
*9 B_O_top
*10 B_T_top
*11 B_config_C_bit0
*12 B_config_C_bit1
*13 B_config_C_bit2
*14 B_config_C_bit3
*15 Ci
*16 FrameData[0]
*17 FrameData[10]
*18 FrameData[11]
*19 FrameData[12]
*20 FrameData[13]
*21 FrameData[14]
*22 FrameData[15]
*23 FrameData[16]
*24 FrameData[17]
*25 FrameData[18]
*26 FrameData[19]
*27 FrameData[1]
*28 FrameData[20]
*29 FrameData[21]
*30 FrameData[22]
*31 FrameData[23]
*32 FrameData[24]
*33 FrameData[25]
*34 FrameData[26]
*35 FrameData[27]
*36 FrameData[28]
*37 FrameData[29]
*38 FrameData[2]
*39 FrameData[30]
*40 FrameData[31]
*41 FrameData[3]
*42 FrameData[4]
*43 FrameData[5]
*44 FrameData[6]
*45 FrameData[7]
*46 FrameData[8]
*47 FrameData[9]
*48 FrameData_O[0]
*49 FrameData_O[10]
*50 FrameData_O[11]
*51 FrameData_O[12]
*52 FrameData_O[13]
*53 FrameData_O[14]
*54 FrameData_O[15]
*55 FrameData_O[16]
*56 FrameData_O[17]
*57 FrameData_O[18]
*58 FrameData_O[19]
*59 FrameData_O[1]
*60 FrameData_O[20]
*61 FrameData_O[21]
*62 FrameData_O[22]
*63 FrameData_O[23]
*64 FrameData_O[24]
*65 FrameData_O[25]
*66 FrameData_O[26]
*67 FrameData_O[27]
*68 FrameData_O[28]
*69 FrameData_O[29]
*70 FrameData_O[2]
*71 FrameData_O[30]
*72 FrameData_O[31]
*73 FrameData_O[3]
*74 FrameData_O[4]
*75 FrameData_O[5]
*76 FrameData_O[6]
*77 FrameData_O[7]
*78 FrameData_O[8]
*79 FrameData_O[9]
*80 FrameStrobe[0]
*81 FrameStrobe[10]
*82 FrameStrobe[11]
*83 FrameStrobe[12]
*84 FrameStrobe[13]
*85 FrameStrobe[14]
*86 FrameStrobe[15]
*87 FrameStrobe[16]
*88 FrameStrobe[17]
*89 FrameStrobe[18]
*90 FrameStrobe[19]
*91 FrameStrobe[1]
*92 FrameStrobe[2]
*93 FrameStrobe[3]
*94 FrameStrobe[4]
*95 FrameStrobe[5]
*96 FrameStrobe[6]
*97 FrameStrobe[7]
*98 FrameStrobe[8]
*99 FrameStrobe[9]
*100 FrameStrobe_O[0]
*101 FrameStrobe_O[10]
*102 FrameStrobe_O[11]
*103 FrameStrobe_O[12]
*104 FrameStrobe_O[13]
*105 FrameStrobe_O[14]
*106 FrameStrobe_O[15]
*107 FrameStrobe_O[16]
*108 FrameStrobe_O[17]
*109 FrameStrobe_O[18]
*110 FrameStrobe_O[19]
*111 FrameStrobe_O[1]
*112 FrameStrobe_O[2]
*113 FrameStrobe_O[3]
*114 FrameStrobe_O[4]
*115 FrameStrobe_O[5]
*116 FrameStrobe_O[6]
*117 FrameStrobe_O[7]
*118 FrameStrobe_O[8]
*119 FrameStrobe_O[9]
*120 N1END[0]
*121 N1END[1]
*122 N1END[2]
*123 N1END[3]
*124 N2END[0]
*125 N2END[1]
*126 N2END[2]
*127 N2END[3]
*128 N2END[4]
*129 N2END[5]
*130 N2END[6]
*131 N2END[7]
*132 N2MID[0]
*133 N2MID[1]
*134 N2MID[2]
*135 N2MID[3]
*136 N2MID[4]
*137 N2MID[5]
*138 N2MID[6]
*139 N2MID[7]
*140 N4END[0]
*141 N4END[10]
*142 N4END[11]
*143 N4END[12]
*144 N4END[13]
*145 N4END[14]
*146 N4END[15]
*147 N4END[1]
*148 N4END[2]
*149 N4END[3]
*150 N4END[4]
*151 N4END[5]
*152 N4END[6]
*153 N4END[7]
*154 N4END[8]
*155 N4END[9]
*156 NN4END[0]
*157 NN4END[10]
*158 NN4END[11]
*159 NN4END[12]
*160 NN4END[13]
*161 NN4END[14]
*162 NN4END[15]
*163 NN4END[1]
*164 NN4END[2]
*165 NN4END[3]
*166 NN4END[4]
*167 NN4END[5]
*168 NN4END[6]
*169 NN4END[7]
*170 NN4END[8]
*171 NN4END[9]
*172 S1BEG[0]
*173 S1BEG[1]
*174 S1BEG[2]
*175 S1BEG[3]
*176 S2BEG[0]
*177 S2BEG[1]
*178 S2BEG[2]
*179 S2BEG[3]
*180 S2BEG[4]
*181 S2BEG[5]
*182 S2BEG[6]
*183 S2BEG[7]
*184 S2BEGb[0]
*185 S2BEGb[1]
*186 S2BEGb[2]
*187 S2BEGb[3]
*188 S2BEGb[4]
*189 S2BEGb[5]
*190 S2BEGb[6]
*191 S2BEGb[7]
*192 S4BEG[0]
*193 S4BEG[10]
*194 S4BEG[11]
*195 S4BEG[12]
*196 S4BEG[13]
*197 S4BEG[14]
*198 S4BEG[15]
*199 S4BEG[1]
*200 S4BEG[2]
*201 S4BEG[3]
*202 S4BEG[4]
*203 S4BEG[5]
*204 S4BEG[6]
*205 S4BEG[7]
*206 S4BEG[8]
*207 S4BEG[9]
*208 SS4BEG[0]
*209 SS4BEG[10]
*210 SS4BEG[11]
*211 SS4BEG[12]
*212 SS4BEG[13]
*213 SS4BEG[14]
*214 SS4BEG[15]
*215 SS4BEG[1]
*216 SS4BEG[2]
*217 SS4BEG[3]
*218 SS4BEG[4]
*219 SS4BEG[5]
*220 SS4BEG[6]
*221 SS4BEG[7]
*222 SS4BEG[8]
*223 SS4BEG[9]
*224 UserCLK
*225 UserCLKo
*228 Inst_A_IO_1_bidirectional_frame_config_pass\.Q
*229 Inst_B_IO_1_bidirectional_frame_config_pass\.Q
*230 Inst_N_IO_ConfigMem\.Inst_frame0_bit0\.Q
*231 Inst_N_IO_ConfigMem\.Inst_frame0_bit1\.Q
*232 Inst_N_IO_ConfigMem\.Inst_frame0_bit10\.Q
*233 Inst_N_IO_ConfigMem\.Inst_frame0_bit11\.Q
*234 Inst_N_IO_ConfigMem\.Inst_frame0_bit12\.Q
*235 Inst_N_IO_ConfigMem\.Inst_frame0_bit13\.Q
*236 Inst_N_IO_ConfigMem\.Inst_frame0_bit14\.Q
*237 Inst_N_IO_ConfigMem\.Inst_frame0_bit15\.Q
*238 Inst_N_IO_ConfigMem\.Inst_frame0_bit16\.Q
*239 Inst_N_IO_ConfigMem\.Inst_frame0_bit17\.Q
*240 Inst_N_IO_ConfigMem\.Inst_frame0_bit18\.Q
*241 Inst_N_IO_ConfigMem\.Inst_frame0_bit19\.Q
*242 Inst_N_IO_ConfigMem\.Inst_frame0_bit2\.Q
*243 Inst_N_IO_ConfigMem\.Inst_frame0_bit20\.Q
*244 Inst_N_IO_ConfigMem\.Inst_frame0_bit21\.Q
*245 Inst_N_IO_ConfigMem\.Inst_frame0_bit22\.Q
*246 Inst_N_IO_ConfigMem\.Inst_frame0_bit23\.Q
*247 Inst_N_IO_ConfigMem\.Inst_frame0_bit24\.Q
*248 Inst_N_IO_ConfigMem\.Inst_frame0_bit25\.Q
*249 Inst_N_IO_ConfigMem\.Inst_frame0_bit26\.Q
*250 Inst_N_IO_ConfigMem\.Inst_frame0_bit27\.Q
*251 Inst_N_IO_ConfigMem\.Inst_frame0_bit28\.Q
*252 Inst_N_IO_ConfigMem\.Inst_frame0_bit29\.Q
*253 Inst_N_IO_ConfigMem\.Inst_frame0_bit3\.Q
*254 Inst_N_IO_ConfigMem\.Inst_frame0_bit30\.Q
*255 Inst_N_IO_ConfigMem\.Inst_frame0_bit31\.Q
*256 Inst_N_IO_ConfigMem\.Inst_frame0_bit4\.Q
*257 Inst_N_IO_ConfigMem\.Inst_frame0_bit5\.Q
*258 Inst_N_IO_ConfigMem\.Inst_frame0_bit6\.Q
*259 Inst_N_IO_ConfigMem\.Inst_frame0_bit7\.Q
*260 Inst_N_IO_ConfigMem\.Inst_frame0_bit8\.Q
*261 Inst_N_IO_ConfigMem\.Inst_frame0_bit9\.Q
*262 Inst_N_IO_ConfigMem\.Inst_frame1_bit0\.Q
*263 Inst_N_IO_ConfigMem\.Inst_frame1_bit1\.Q
*264 Inst_N_IO_ConfigMem\.Inst_frame1_bit10\.Q
*265 Inst_N_IO_ConfigMem\.Inst_frame1_bit11\.Q
*266 Inst_N_IO_ConfigMem\.Inst_frame1_bit12\.Q
*267 Inst_N_IO_ConfigMem\.Inst_frame1_bit13\.Q
*268 Inst_N_IO_ConfigMem\.Inst_frame1_bit14\.Q
*269 Inst_N_IO_ConfigMem\.Inst_frame1_bit15\.Q
*270 Inst_N_IO_ConfigMem\.Inst_frame1_bit16\.Q
*271 Inst_N_IO_ConfigMem\.Inst_frame1_bit17\.Q
*272 Inst_N_IO_ConfigMem\.Inst_frame1_bit18\.Q
*273 Inst_N_IO_ConfigMem\.Inst_frame1_bit19\.Q
*274 Inst_N_IO_ConfigMem\.Inst_frame1_bit2\.Q
*275 Inst_N_IO_ConfigMem\.Inst_frame1_bit20\.Q
*276 Inst_N_IO_ConfigMem\.Inst_frame1_bit21\.Q
*277 Inst_N_IO_ConfigMem\.Inst_frame1_bit22\.Q
*278 Inst_N_IO_ConfigMem\.Inst_frame1_bit23\.Q
*279 Inst_N_IO_ConfigMem\.Inst_frame1_bit24\.Q
*280 Inst_N_IO_ConfigMem\.Inst_frame1_bit25\.Q
*281 Inst_N_IO_ConfigMem\.Inst_frame1_bit26\.Q
*282 Inst_N_IO_ConfigMem\.Inst_frame1_bit27\.Q
*283 Inst_N_IO_ConfigMem\.Inst_frame1_bit28\.Q
*284 Inst_N_IO_ConfigMem\.Inst_frame1_bit29\.Q
*285 Inst_N_IO_ConfigMem\.Inst_frame1_bit3\.Q
*286 Inst_N_IO_ConfigMem\.Inst_frame1_bit30\.Q
*287 Inst_N_IO_ConfigMem\.Inst_frame1_bit31\.Q
*288 Inst_N_IO_ConfigMem\.Inst_frame1_bit4\.Q
*289 Inst_N_IO_ConfigMem\.Inst_frame1_bit5\.Q
*290 Inst_N_IO_ConfigMem\.Inst_frame1_bit6\.Q
*291 Inst_N_IO_ConfigMem\.Inst_frame1_bit7\.Q
*292 Inst_N_IO_ConfigMem\.Inst_frame1_bit8\.Q
*293 Inst_N_IO_ConfigMem\.Inst_frame1_bit9\.Q
*294 Inst_N_IO_ConfigMem\.Inst_frame2_bit0\.Q
*295 Inst_N_IO_ConfigMem\.Inst_frame2_bit1\.Q
*296 Inst_N_IO_ConfigMem\.Inst_frame2_bit10\.Q
*297 Inst_N_IO_ConfigMem\.Inst_frame2_bit11\.Q
*298 Inst_N_IO_ConfigMem\.Inst_frame2_bit12\.Q
*299 Inst_N_IO_ConfigMem\.Inst_frame2_bit13\.Q
*300 Inst_N_IO_ConfigMem\.Inst_frame2_bit14\.Q
*301 Inst_N_IO_ConfigMem\.Inst_frame2_bit15\.Q
*302 Inst_N_IO_ConfigMem\.Inst_frame2_bit16\.Q
*303 Inst_N_IO_ConfigMem\.Inst_frame2_bit17\.Q
*304 Inst_N_IO_ConfigMem\.Inst_frame2_bit18\.Q
*305 Inst_N_IO_ConfigMem\.Inst_frame2_bit19\.Q
*306 Inst_N_IO_ConfigMem\.Inst_frame2_bit2\.Q
*307 Inst_N_IO_ConfigMem\.Inst_frame2_bit20\.Q
*308 Inst_N_IO_ConfigMem\.Inst_frame2_bit21\.Q
*309 Inst_N_IO_ConfigMem\.Inst_frame2_bit22\.Q
*310 Inst_N_IO_ConfigMem\.Inst_frame2_bit23\.Q
*311 Inst_N_IO_ConfigMem\.Inst_frame2_bit24\.Q
*312 Inst_N_IO_ConfigMem\.Inst_frame2_bit25\.Q
*313 Inst_N_IO_ConfigMem\.Inst_frame2_bit26\.Q
*314 Inst_N_IO_ConfigMem\.Inst_frame2_bit27\.Q
*315 Inst_N_IO_ConfigMem\.Inst_frame2_bit28\.Q
*316 Inst_N_IO_ConfigMem\.Inst_frame2_bit29\.Q
*317 Inst_N_IO_ConfigMem\.Inst_frame2_bit3\.Q
*318 Inst_N_IO_ConfigMem\.Inst_frame2_bit30\.Q
*319 Inst_N_IO_ConfigMem\.Inst_frame2_bit31\.Q
*320 Inst_N_IO_ConfigMem\.Inst_frame2_bit4\.Q
*321 Inst_N_IO_ConfigMem\.Inst_frame2_bit5\.Q
*322 Inst_N_IO_ConfigMem\.Inst_frame2_bit6\.Q
*323 Inst_N_IO_ConfigMem\.Inst_frame2_bit7\.Q
*324 Inst_N_IO_ConfigMem\.Inst_frame2_bit8\.Q
*325 Inst_N_IO_ConfigMem\.Inst_frame2_bit9\.Q
*326 Inst_N_IO_ConfigMem\.Inst_frame3_bit14\.Q
*327 Inst_N_IO_ConfigMem\.Inst_frame3_bit15\.Q
*328 Inst_N_IO_ConfigMem\.Inst_frame3_bit16\.Q
*329 Inst_N_IO_ConfigMem\.Inst_frame3_bit17\.Q
*330 Inst_N_IO_ConfigMem\.Inst_frame3_bit18\.Q
*331 Inst_N_IO_ConfigMem\.Inst_frame3_bit19\.Q
*332 Inst_N_IO_ConfigMem\.Inst_frame3_bit20\.Q
*333 Inst_N_IO_ConfigMem\.Inst_frame3_bit21\.Q
*334 Inst_N_IO_ConfigMem\.Inst_frame3_bit22\.Q
*335 Inst_N_IO_ConfigMem\.Inst_frame3_bit23\.Q
*336 Inst_N_IO_ConfigMem\.Inst_frame3_bit24\.Q
*337 Inst_N_IO_ConfigMem\.Inst_frame3_bit25\.Q
*338 Inst_N_IO_ConfigMem\.Inst_frame3_bit26\.Q
*339 Inst_N_IO_ConfigMem\.Inst_frame3_bit27\.Q
*340 Inst_N_IO_ConfigMem\.Inst_frame3_bit28\.Q
*341 Inst_N_IO_ConfigMem\.Inst_frame3_bit29\.Q
*342 Inst_N_IO_ConfigMem\.Inst_frame3_bit30\.Q
*343 Inst_N_IO_ConfigMem\.Inst_frame3_bit31\.Q
*344 Inst_N_IO_switch_matrix\.S1BEG0
*345 Inst_N_IO_switch_matrix\.S1BEG1
*346 Inst_N_IO_switch_matrix\.S1BEG2
*347 Inst_N_IO_switch_matrix\.S1BEG3
*348 Inst_N_IO_switch_matrix\.S2BEG0
*349 Inst_N_IO_switch_matrix\.S2BEG1
*350 Inst_N_IO_switch_matrix\.S2BEG2
*351 Inst_N_IO_switch_matrix\.S2BEG3
*352 Inst_N_IO_switch_matrix\.S2BEG4
*353 Inst_N_IO_switch_matrix\.S2BEG5
*354 Inst_N_IO_switch_matrix\.S2BEG6
*355 Inst_N_IO_switch_matrix\.S2BEG7
*356 Inst_N_IO_switch_matrix\.S2BEGb0
*357 Inst_N_IO_switch_matrix\.S2BEGb1
*358 Inst_N_IO_switch_matrix\.S2BEGb2
*359 Inst_N_IO_switch_matrix\.S2BEGb3
*360 Inst_N_IO_switch_matrix\.S2BEGb4
*361 Inst_N_IO_switch_matrix\.S2BEGb5
*362 Inst_N_IO_switch_matrix\.S2BEGb6
*363 Inst_N_IO_switch_matrix\.S2BEGb7
*364 Inst_N_IO_switch_matrix\.S4BEG0
*365 Inst_N_IO_switch_matrix\.S4BEG1
*366 Inst_N_IO_switch_matrix\.S4BEG10
*367 Inst_N_IO_switch_matrix\.S4BEG11
*368 Inst_N_IO_switch_matrix\.S4BEG12
*369 Inst_N_IO_switch_matrix\.S4BEG13
*370 Inst_N_IO_switch_matrix\.S4BEG14
*371 Inst_N_IO_switch_matrix\.S4BEG15
*372 Inst_N_IO_switch_matrix\.S4BEG2
*373 Inst_N_IO_switch_matrix\.S4BEG3
*374 Inst_N_IO_switch_matrix\.S4BEG4
*375 Inst_N_IO_switch_matrix\.S4BEG5
*376 Inst_N_IO_switch_matrix\.S4BEG6
*377 Inst_N_IO_switch_matrix\.S4BEG7
*378 Inst_N_IO_switch_matrix\.S4BEG8
*379 Inst_N_IO_switch_matrix\.S4BEG9
*380 Inst_N_IO_switch_matrix\.SS4BEG0
*381 Inst_N_IO_switch_matrix\.SS4BEG1
*382 Inst_N_IO_switch_matrix\.SS4BEG10
*383 Inst_N_IO_switch_matrix\.SS4BEG11
*384 Inst_N_IO_switch_matrix\.SS4BEG12
*385 Inst_N_IO_switch_matrix\.SS4BEG13
*386 Inst_N_IO_switch_matrix\.SS4BEG14
*387 Inst_N_IO_switch_matrix\.SS4BEG15
*388 Inst_N_IO_switch_matrix\.SS4BEG2
*389 Inst_N_IO_switch_matrix\.SS4BEG3
*390 Inst_N_IO_switch_matrix\.SS4BEG4
*391 Inst_N_IO_switch_matrix\.SS4BEG5
*392 Inst_N_IO_switch_matrix\.SS4BEG6
*393 Inst_N_IO_switch_matrix\.SS4BEG7
*394 Inst_N_IO_switch_matrix\.SS4BEG8
*395 Inst_N_IO_switch_matrix\.SS4BEG9
*396 _000_
*397 _001_
*398 _002_
*399 _003_
*400 _004_
*401 _005_
*402 _006_
*403 _007_
*404 _008_
*405 _009_
*406 _010_
*407 _011_
*408 _012_
*409 _013_
*410 _014_
*411 _015_
*412 _016_
*413 _017_
*414 _018_
*415 _019_
*416 _020_
*417 _021_
*418 _022_
*419 _023_
*420 _024_
*421 _025_
*422 _026_
*423 _027_
*424 _028_
*425 _029_
*426 _030_
*427 _031_
*428 _032_
*429 _033_
*430 _034_
*431 _035_
*432 _036_
*433 _037_
*434 _038_
*435 _039_
*436 _040_
*437 _041_
*438 _042_
*439 _043_
*440 _044_
*441 _045_
*442 _046_
*443 net1
*444 net10
*445 net100
*446 net101
*447 net102
*448 net103
*449 net104
*450 net105
*451 net106
*452 net107
*453 net108
*454 net109
*455 net11
*456 net110
*457 net111
*458 net112
*459 net113
*460 net114
*461 net115
*462 net116
*463 net117
*464 net118
*465 net119
*466 net12
*467 net120
*468 net121
*469 net122
*470 net123
*471 net124
*472 net125
*473 net126
*474 net127
*475 net128
*476 net129
*477 net13
*478 net130
*479 net131
*480 net132
*481 net133
*482 net134
*483 net135
*484 net136
*485 net137
*486 net138
*487 net139
*488 net14
*489 net140
*490 net141
*491 net142
*492 net143
*493 net144
*494 net145
*495 net146
*496 net147
*497 net148
*498 net149
*499 net15
*500 net150
*501 net151
*502 net152
*503 net153
*504 net154
*505 net155
*506 net156
*507 net157
*508 net158
*509 net159
*510 net16
*511 net160
*512 net161
*513 net162
*514 net163
*515 net164
*516 net165
*517 net166
*518 net167
*519 net168
*520 net169
*521 net17
*522 net170
*523 net171
*524 net172
*525 net173
*526 net174
*527 net175
*528 net176
*529 net177
*530 net178
*531 net179
*532 net18
*533 net180
*534 net181
*535 net182
*536 net183
*537 net184
*538 net185
*539 net186
*540 net187
*541 net188
*542 net189
*543 net19
*544 net190
*545 net191
*546 net192
*547 net193
*548 net194
*549 net195
*550 net196
*551 net197
*552 net198
*553 net199
*554 net2
*555 net20
*556 net200
*557 net201
*558 net202
*559 net203
*560 net204
*561 net205
*562 net206
*563 net207
*564 net208
*565 net209
*566 net21
*567 net210
*568 net211
*569 net212
*570 net213
*571 net214
*572 net215
*573 net216
*574 net217
*575 net218
*576 net219
*577 net22
*578 net220
*579 net221
*580 net222
*581 net223
*582 net224
*583 net225
*584 net226
*585 net227
*586 net228
*587 net229
*588 net23
*589 net24
*590 net25
*591 net26
*592 net27
*593 net28
*594 net29
*595 net3
*596 net30
*597 net31
*598 net32
*599 net33
*600 net34
*601 net35
*602 net36
*603 net37
*604 net38
*605 net39
*606 net4
*607 net40
*608 net41
*609 net42
*610 net43
*611 net44
*612 net45
*613 net46
*614 net47
*615 net48
*616 net49
*617 net5
*618 net50
*619 net51
*620 net52
*621 net53
*622 net54
*623 net55
*624 net56
*625 net57
*626 net58
*627 net59
*628 net6
*629 net60
*630 net61
*631 net62
*632 net63
*633 net64
*634 net65
*635 net66
*636 net67
*637 net68
*638 net69
*639 net7
*640 net70
*641 net71
*642 net72
*643 net73
*644 net74
*645 net75
*646 net76
*647 net77
*648 net78
*649 net79
*650 net8
*651 net80
*652 net81
*653 net82
*654 net83
*655 net84
*656 net85
*657 net86
*658 net87
*659 net88
*660 net89
*661 net9
*662 net90
*663 net91
*664 net92
*665 net93
*666 net94
*667 net95
*668 net96
*669 net97
*670 net98
*671 net99
*672 FILLER_0_12
*673 FILLER_0_14
*674 FILLER_0_198
*675 FILLER_0_275
*676 FILLER_0_305
*677 FILLER_0_364
*678 FILLER_0_366
*679 FILLER_0_388
*680 FILLER_0_390
*681 FILLER_0_408
*682 FILLER_0_415
*683 FILLER_0_422
*684 FILLER_0_429
*685 FILLER_0_436
*686 FILLER_0_93
*687 FILLER_10_105
*688 FILLER_10_12
*689 FILLER_10_131
*690 FILLER_10_137
*691 FILLER_10_168
*692 FILLER_10_172
*693 FILLER_10_19
*694 FILLER_10_203
*695 FILLER_10_237
*696 FILLER_10_239
*697 FILLER_10_26
*698 FILLER_10_269
*699 FILLER_10_30
*700 FILLER_10_309
*701 FILLER_10_311
*702 FILLER_10_345
*703 FILLER_10_367
*704 FILLER_10_389
*705 FILLER_10_429
*706 FILLER_10_431
*707 FILLER_10_456
*708 FILLER_10_458
*709 FILLER_10_71
*710 FILLER_10_80
*711 FILLER_10_85
*712 FILLER_10_87
*713 FILLER_11_101
*714 FILLER_11_187
*715 FILLER_11_189
*716 FILLER_11_194
*717 FILLER_11_20
*718 FILLER_11_213
*719 FILLER_11_232
*720 FILLER_11_234
*721 FILLER_11_24
*722 FILLER_11_281
*723 FILLER_11_29
*724 FILLER_11_353
*725 FILLER_11_36
*726 FILLER_11_38
*727 FILLER_11_383
*728 FILLER_11_47
*729 FILLER_11_53
*730 FILLER_11_57
*731 FILLER_11_70
*732 FILLER_1_199
*733 FILLER_1_201
*734 FILLER_1_231
*735 FILLER_1_300
*736 FILLER_1_322
*737 FILLER_1_366
*738 FILLER_1_388
*739 FILLER_1_415
*740 FILLER_1_422
*741 FILLER_1_429
*742 FILLER_1_436
*743 FILLER_1_443
*744 FILLER_1_8
*745 FILLER_2_130
*746 FILLER_2_16
*747 FILLER_2_165
*748 FILLER_2_167
*749 FILLER_2_238
*750 FILLER_2_240
*751 FILLER_2_245
*752 FILLER_2_267
*753 FILLER_2_289
*754 FILLER_2_341
*755 FILLER_2_343
*756 FILLER_2_373
*757 FILLER_2_38
*758 FILLER_2_391
*759 FILLER_2_393
*760 FILLER_2_425
*761 FILLER_2_432
*762 FILLER_2_439
*763 FILLER_2_446
*764 FILLER_2_450
*765 FILLER_2_70
*766 FILLER_3_10
*767 FILLER_3_107
*768 FILLER_3_159
*769 FILLER_3_177
*770 FILLER_3_179
*771 FILLER_3_201
*772 FILLER_3_232
*773 FILLER_3_241
*774 FILLER_3_243
*775 FILLER_3_264
*776 FILLER_3_282
*777 FILLER_3_284
*778 FILLER_3_310
*779 FILLER_3_337
*780 FILLER_3_396
*781 FILLER_3_400
*782 FILLER_3_405
*783 FILLER_3_410
*784 FILLER_3_418
*785 FILLER_3_425
*786 FILLER_3_432
*787 FILLER_3_439
*788 FILLER_3_446
*789 FILLER_3_8
*790 FILLER_4_108
*791 FILLER_4_12
*792 FILLER_4_139
*793 FILLER_4_162
*794 FILLER_4_202
*795 FILLER_4_22
*796 FILLER_4_234
*797 FILLER_4_252
*798 FILLER_4_278
*799 FILLER_4_280
*800 FILLER_4_344
*801 FILLER_4_374
*802 FILLER_4_401
*803 FILLER_4_429
*804 FILLER_4_436
*805 FILLER_4_443
*806 FILLER_4_450
*807 FILLER_4_8
*808 FILLER_5_10
*809 FILLER_5_108
*810 FILLER_5_143
*811 FILLER_5_183
*812 FILLER_5_205
*813 FILLER_5_207
*814 FILLER_5_250
*815 FILLER_5_272
*816 FILLER_5_298
*817 FILLER_5_304
*818 FILLER_5_338
*819 FILLER_5_360
*820 FILLER_5_397
*821 FILLER_5_427
*822 FILLER_5_434
*823 FILLER_5_441
*824 FILLER_5_448
*825 FILLER_5_450
*826 FILLER_5_8
*827 FILLER_5_81
*828 FILLER_6_106
*829 FILLER_6_12
*830 FILLER_6_125
*831 FILLER_6_14
*832 FILLER_6_169
*833 FILLER_6_207
*834 FILLER_6_236
*835 FILLER_6_243
*836 FILLER_6_250
*837 FILLER_6_254
*838 FILLER_6_259
*839 FILLER_6_299
*840 FILLER_6_305
*841 FILLER_6_375
*842 FILLER_6_382
*843 FILLER_6_386
*844 FILLER_6_391
*845 FILLER_6_410
*846 FILLER_6_415
*847 FILLER_6_422
*848 FILLER_6_429
*849 FILLER_6_436
*850 FILLER_6_443
*851 FILLER_6_80
*852 FILLER_7_125
*853 FILLER_7_147
*854 FILLER_7_166
*855 FILLER_7_168
*856 FILLER_7_236
*857 FILLER_7_255
*858 FILLER_7_257
*859 FILLER_7_262
*860 FILLER_7_269
*861 FILLER_7_304
*862 FILLER_7_355
*863 FILLER_7_362
*864 FILLER_7_366
*865 FILLER_7_379
*866 FILLER_7_383
*867 FILLER_7_401
*868 FILLER_7_431
*869 FILLER_7_438
*870 FILLER_7_44
*871 FILLER_7_46
*872 FILLER_7_60
*873 FILLER_7_8
*874 FILLER_8_103
*875 FILLER_8_121
*876 FILLER_8_127
*877 FILLER_8_132
*878 FILLER_8_15
*879 FILLER_8_190
*880 FILLER_8_192
*881 FILLER_8_197
*882 FILLER_8_220
*883 FILLER_8_227
*884 FILLER_8_233
*885 FILLER_8_266
*886 FILLER_8_300
*887 FILLER_8_33
*888 FILLER_8_348
*889 FILLER_8_37
*890 FILLER_8_375
*891 FILLER_8_403
*892 FILLER_8_426
*893 FILLER_8_444
*894 FILLER_8_446
*895 FILLER_8_8
*896 FILLER_8_83
*897 FILLER_9_12
*898 FILLER_9_18
*899 FILLER_9_191
*900 FILLER_9_197
*901 FILLER_9_219
*902 FILLER_9_223
*903 FILLER_9_242
*904 FILLER_9_249
*905 FILLER_9_25
*906 FILLER_9_267
*907 FILLER_9_27
*908 FILLER_9_286
*909 FILLER_9_290
*910 FILLER_9_337
*911 FILLER_9_369
*912 FILLER_9_404
*913 FILLER_9_431
*914 FILLER_9_441
*915 FILLER_9_8
*916 FILLER_9_90
*917 _049_
*918 _050_
*919 _051_
*920 _052_
*921 _053_
*922 _054_
*923 _055_
*924 _056_
*925 _057_
*926 _058_
*927 _059_
*928 _060_
*929 _061_
*930 _062_
*931 _063_
*932 _064_
*933 _065_
*934 _066_
*935 _067_
*936 _068_
*937 _069_
*938 _070_
*939 _071_
*940 _072_
*941 _073_
*942 _074_
*943 _075_
*944 _076_
*945 _077_
*946 _078_
*947 _079_
*948 _080_
*949 _081_
*950 _082_
*951 _083_
*952 _084_
*953 _085_
*954 _086_
*955 _087_
*956 _088_
*957 _089_
*958 _090_
*959 _091_
*960 _092_
*961 _093_
*962 _094_
*963 _095_
*964 _096_
*965 _097_
*966 _098_
*967 _099_
*968 _100_
*969 _101_
*970 _102_
*971 _103_
*972 _104_
*973 _105_
*974 _106_
*975 _107_
*976 _108_
*977 _109_
*978 _110_
*979 _111_
*980 _112_
*981 _113_
*982 _114_
*983 _115_
*984 _116_
*985 _117_
*986 _118_
*987 _119_
*988 _120_
*989 _121_
*990 _122_
*991 _123_
*992 _124_
*993 _125_
*994 _126_
*995 _127_
*996 _128_
*997 _129_
*998 _130_
*999 _131_
*1000 _132_
*1001 _133_
*1002 _134_
*1003 _135_
*1004 _136_
*1005 _137_
*1006 _138_
*1007 _139_
*1008 _140_
*1009 _141_
*1010 _142_
*1011 _143_
*1012 _144_
*1013 _145_
*1014 _146_
*1015 _147_
*1016 _148_
*1017 _149_
*1018 _150_
*1019 _151_
*1020 _152_
*1021 _153_
*1022 _154_
*1023 _155_
*1024 _156_
*1025 _157_
*1026 _158_
*1027 _159_
*1028 _160_
*1029 _161_
*1030 _162_
*1031 _163_
*1032 _164_
*1033 _165_
*1034 _166_
*1035 _167_
*1036 _168_
*1037 _169_
*1038 _170_
*1039 _171_
*1040 _172_
*1041 _173_
*1042 _174_
*1043 _175_
*1044 _176_
*1045 _177_
*1046 _178_
*1047 _179_
*1048 _180_
*1049 _181_
*1050 _182_
*1051 _183_
*1052 _184_
*1053 _185_
*1054 _186_
*1055 _187_
*1056 _188_
*1057 _189_
*1058 _190_
*1059 _191_
*1060 _192_
*1061 _193_
*1062 _194_
*1063 _195_
*1064 _196_
*1065 _197_
*1066 _198_
*1067 _199_
*1068 _200_
*1069 _201_
*1070 _202_
*1071 _203_
*1072 _204_
*1073 _205_
*1074 _206_
*1075 _207_
*1076 _208_
*1077 _209_
*1078 _210_
*1079 _211_
*1080 _212_
*1081 _213_
*1082 _214_
*1083 _215_
*1084 _216_
*1085 _217_
*1086 _218_
*1087 _219_
*1088 _220_
*1089 _221_
*1090 _222_
*1091 _223_
*1092 _224_
*1093 _225_
*1094 _226_
*1095 _227_
*1096 _228_
*1097 _229_
*1098 _230_
*1099 _231_
*1100 _232_
*1101 _233_
*1102 _234_
*1103 _235_
*1104 _236_
*1105 _237_
*1106 _238_
*1107 _239_
*1108 _240_
*1109 _241_
*1110 _242_
*1111 _243_
*1112 _244_
*1113 _245_
*1114 _246_
*1115 _247_
*1116 _248_
*1117 _249_
*1118 _250_
*1119 _251_
*1120 _252_
*1121 _253_
*1122 _254_
*1123 _255_
*1124 _256_
*1125 _257_
*1126 _258_
*1127 _259_
*1128 _260_
*1129 _261_
*1130 _262_
*1131 _263_
*1132 _264_
*1133 _265_
*1134 _266_
*1135 _267_
*1136 _268_
*1137 _269_
*1138 _270_
*1139 _271_
*1140 _272_
*1141 _272__205
*1142 _273_
*1143 _273__206
*1144 _276_
*1145 _277_
*1146 _278_
*1147 _279_
*1148 _280_
*1149 _281_
*1150 _282_
*1151 _283_
*1152 _284_
*1153 _285_
*1154 _286_
*1155 _287_
*1156 _288_
*1157 _289_
*1158 _290_
*1159 _291_
*1160 _292_
*1161 _293_
*1162 _294_
*1163 _295_
*1164 _296_
*1165 _297_
*1166 _298_
*1167 _299_
*1168 _300_
*1169 _301_
*1170 _302_
*1171 _303_
*1172 _304_
*1173 _305_
*1174 _306_
*1175 _307_
*1176 _308_
*1177 _309_
*1178 _310_
*1179 _311_
*1180 _312_
*1181 _313_
*1182 _314_
*1183 _315_
*1184 _316_
*1185 _317_
*1186 _318_
*1187 _319_
*1188 _320_
*1189 _321_
*1190 _322_
*1191 _323_
*1192 _324_
*1193 _325_
*1194 _326_
*1195 _327_
*1196 _328_
*1197 _329_
*1198 _330_
*1199 _331_
*1200 _332_
*1201 _333_
*1202 _334_
*1203 _335_
*1204 _336_
*1205 _337_
*1206 _338_
*1207 _339_
*1208 _340_
*1209 _341_
*1210 _342_
*1211 _343_
*1212 _344_
*1213 _345_
*1214 _346_
*1215 _347_
*1216 _348_
*1217 _349_
*1218 _350_
*1219 _351_
*1220 _352_
*1221 _353_
*1222 _354_
*1223 _355_
*1224 _356_
*1225 _357_
*1226 _358_
*1227 _359_
*1228 _360_
*1229 _361_
*1230 _362_
*1231 _363_
*1232 _364_
*1233 _365_
*1234 _366_
*1235 _367_
*1236 _368_
*1237 _369_
*1238 _370_
*1239 _371_
*1240 _372_
*1241 _373_
*1242 _374_
*1243 _375_
*1244 _376_
*1245 _377_
*1246 _378_
*1247 _379_
*1248 _380_
*1249 fanout69
*1250 fanout70
*1251 fanout71
*1252 fanout72
*1253 fanout73
*1254 fanout74
*1255 fanout75
*1256 fanout76
*1257 fanout77
*1258 fanout78
*1259 fanout79
*1260 fanout80
*1261 fanout81
*1262 fanout82
*1263 fanout83
*1264 fanout84
*1265 fanout85
*1266 fanout86
*1267 fanout87
*1268 fanout88
*1269 fanout89
*1270 fanout90
*1271 fanout91
*1272 input1
*1273 input10
*1274 input11
*1275 input12
*1276 input13
*1277 input14
*1278 input15
*1279 input16
*1280 input17
*1281 input18
*1282 input19
*1283 input2
*1284 input20
*1285 input21
*1286 input22
*1287 input23
*1288 input24
*1289 input25
*1290 input26
*1291 input27
*1292 input28
*1293 input29
*1294 input3
*1295 input30
*1296 input31
*1297 input32
*1298 input33
*1299 input34
*1300 input35
*1301 input36
*1302 input37
*1303 input38
*1304 input39
*1305 input4
*1306 input40
*1307 input41
*1308 input42
*1309 input43
*1310 input44
*1311 input45
*1312 input46
*1313 input47
*1314 input48
*1315 input49
*1316 input5
*1317 input50
*1318 input51
*1319 input52
*1320 input53
*1321 input54
*1322 input55
*1323 input56
*1324 input57
*1325 input58
*1326 input59
*1327 input6
*1328 input60
*1329 input61
*1330 input62
*1331 input63
*1332 input64
*1333 input65
*1334 input66
*1335 input67
*1336 input68
*1337 input69
*1338 input7
*1339 input70
*1340 input71
*1341 input72
*1342 input73
*1343 input74
*1344 input75
*1345 input76
*1346 input77
*1347 input78
*1348 input79
*1349 input8
*1350 input80
*1351 input81
*1352 input82
*1353 input83
*1354 input84
*1355 input85
*1356 input86
*1357 input87
*1358 input9
*1359 output100
*1360 output101
*1361 output102
*1362 output103
*1363 output104
*1364 output105
*1365 output106
*1366 output107
*1367 output108
*1368 output109
*1369 output110
*1370 output111
*1371 output112
*1372 output113
*1373 output114
*1374 output115
*1375 output116
*1376 output117
*1377 output118
*1378 output119
*1379 output120
*1380 output121
*1381 output122
*1382 output123
*1383 output124
*1384 output125
*1385 output126
*1386 output127
*1387 output128
*1388 output129
*1389 output130
*1390 output131
*1391 output132
*1392 output133
*1393 output134
*1394 output135
*1395 output136
*1396 output137
*1397 output138
*1398 output139
*1399 output140
*1400 output141
*1401 output142
*1402 output143
*1403 output144
*1404 output145
*1405 output146
*1406 output147
*1407 output148
*1408 output149
*1409 output150
*1410 output151
*1411 output152
*1412 output153
*1413 output154
*1414 output155
*1415 output156
*1416 output157
*1417 output158
*1418 output159
*1419 output160
*1420 output161
*1421 output162
*1422 output163
*1423 output164
*1424 output165
*1425 output166
*1426 output167
*1427 output168
*1428 output169
*1429 output170
*1430 output171
*1431 output172
*1432 output173
*1433 output174
*1434 output175
*1435 output176
*1436 output177
*1437 output178
*1438 output179
*1439 output180
*1440 output181
*1441 output182
*1442 output183
*1443 output184
*1444 output185
*1445 output186
*1446 output187
*1447 output188
*1448 output189
*1449 output190
*1450 output191
*1451 output192
*1452 output193
*1453 output194
*1454 output195
*1455 output196
*1456 output197
*1457 output198
*1458 output199
*1459 output200
*1460 output201
*1461 output202
*1462 output203
*1463 output204
*1464 output88
*1465 output89
*1466 output90
*1467 output91
*1468 output92
*1469 output93
*1470 output94
*1471 output95
*1472 output96
*1473 output97
*1474 output98
*1475 output99

*PORTS
A_I_top O
A_O_top I
A_T_top O
A_config_C_bit0 O
A_config_C_bit1 O
A_config_C_bit2 O
A_config_C_bit3 O
B_I_top O
B_O_top I
B_T_top O
B_config_C_bit0 O
B_config_C_bit1 O
B_config_C_bit2 O
B_config_C_bit3 O
Ci I
FrameData[0] I
FrameData[10] I
FrameData[11] I
FrameData[12] I
FrameData[13] I
FrameData[14] I
FrameData[15] I
FrameData[16] I
FrameData[17] I
FrameData[18] I
FrameData[19] I
FrameData[1] I
FrameData[20] I
FrameData[21] I
FrameData[22] I
FrameData[23] I
FrameData[24] I
FrameData[25] I
FrameData[26] I
FrameData[27] I
FrameData[28] I
FrameData[29] I
FrameData[2] I
FrameData[30] I
FrameData[31] I
FrameData[3] I
FrameData[4] I
FrameData[5] I
FrameData[6] I
FrameData[7] I
FrameData[8] I
FrameData[9] I
FrameData_O[0] O
FrameData_O[10] O
FrameData_O[11] O
FrameData_O[12] O
FrameData_O[13] O
FrameData_O[14] O
FrameData_O[15] O
FrameData_O[16] O
FrameData_O[17] O
FrameData_O[18] O
FrameData_O[19] O
FrameData_O[1] O
FrameData_O[20] O
FrameData_O[21] O
FrameData_O[22] O
FrameData_O[23] O
FrameData_O[24] O
FrameData_O[25] O
FrameData_O[26] O
FrameData_O[27] O
FrameData_O[28] O
FrameData_O[29] O
FrameData_O[2] O
FrameData_O[30] O
FrameData_O[31] O
FrameData_O[3] O
FrameData_O[4] O
FrameData_O[5] O
FrameData_O[6] O
FrameData_O[7] O
FrameData_O[8] O
FrameData_O[9] O
FrameStrobe[0] I
FrameStrobe[10] I
FrameStrobe[11] I
FrameStrobe[12] I
FrameStrobe[13] I
FrameStrobe[14] I
FrameStrobe[15] I
FrameStrobe[16] I
FrameStrobe[17] I
FrameStrobe[18] I
FrameStrobe[19] I
FrameStrobe[1] I
FrameStrobe[2] I
FrameStrobe[3] I
FrameStrobe[4] I
FrameStrobe[5] I
FrameStrobe[6] I
FrameStrobe[7] I
FrameStrobe[8] I
FrameStrobe[9] I
FrameStrobe_O[0] O
FrameStrobe_O[10] O
FrameStrobe_O[11] O
FrameStrobe_O[12] O
FrameStrobe_O[13] O
FrameStrobe_O[14] O
FrameStrobe_O[15] O
FrameStrobe_O[16] O
FrameStrobe_O[17] O
FrameStrobe_O[18] O
FrameStrobe_O[19] O
FrameStrobe_O[1] O
FrameStrobe_O[2] O
FrameStrobe_O[3] O
FrameStrobe_O[4] O
FrameStrobe_O[5] O
FrameStrobe_O[6] O
FrameStrobe_O[7] O
FrameStrobe_O[8] O
FrameStrobe_O[9] O
N1END[0] I
N1END[1] I
N1END[2] I
N1END[3] I
N2END[0] I
N2END[1] I
N2END[2] I
N2END[3] I
N2END[4] I
N2END[5] I
N2END[6] I
N2END[7] I
N2MID[0] I
N2MID[1] I
N2MID[2] I
N2MID[3] I
N2MID[4] I
N2MID[5] I
N2MID[6] I
N2MID[7] I
N4END[0] I
N4END[10] I
N4END[11] I
N4END[12] I
N4END[13] I
N4END[14] I
N4END[15] I
N4END[1] I
N4END[2] I
N4END[3] I
N4END[4] I
N4END[5] I
N4END[6] I
N4END[7] I
N4END[8] I
N4END[9] I
NN4END[0] I
NN4END[10] I
NN4END[11] I
NN4END[12] I
NN4END[13] I
NN4END[14] I
NN4END[15] I
NN4END[1] I
NN4END[2] I
NN4END[3] I
NN4END[4] I
NN4END[5] I
NN4END[6] I
NN4END[7] I
NN4END[8] I
NN4END[9] I
S1BEG[0] O
S1BEG[1] O
S1BEG[2] O
S1BEG[3] O
S2BEG[0] O
S2BEG[1] O
S2BEG[2] O
S2BEG[3] O
S2BEG[4] O
S2BEG[5] O
S2BEG[6] O
S2BEG[7] O
S2BEGb[0] O
S2BEGb[1] O
S2BEGb[2] O
S2BEGb[3] O
S2BEGb[4] O
S2BEGb[5] O
S2BEGb[6] O
S2BEGb[7] O
S4BEG[0] O
S4BEG[10] O
S4BEG[11] O
S4BEG[12] O
S4BEG[13] O
S4BEG[14] O
S4BEG[15] O
S4BEG[1] O
S4BEG[2] O
S4BEG[3] O
S4BEG[4] O
S4BEG[5] O
S4BEG[6] O
S4BEG[7] O
S4BEG[8] O
S4BEG[9] O
SS4BEG[0] O
SS4BEG[10] O
SS4BEG[11] O
SS4BEG[12] O
SS4BEG[13] O
SS4BEG[14] O
SS4BEG[15] O
SS4BEG[1] O
SS4BEG[2] O
SS4BEG[3] O
SS4BEG[4] O
SS4BEG[5] O
SS4BEG[6] O
SS4BEG[7] O
SS4BEG[8] O
SS4BEG[9] O
UserCLK I
UserCLKo O

*D_NET *1 0.00105993
*CONN
*P A_I_top O
*I *1464:X O *D sg13g2_buf_1
*CAP
1 A_I_top 0.000529963
2 *1464:X 0.000529963
3 A_I_top *443:12 0
4 A_I_top *517:28 0
*RES
1 *1464:X A_I_top 46.2006 
*END

*D_NET *2 0.000913983
*CONN
*P A_O_top I
*I *1272:A I *D sg13g2_buf_1
*CAP
1 A_O_top 0.000456992
2 *1272:A 0.000456992