*SPEF "ieee 1481-1999"
*DESIGN "RegFile"
*DATE "08:28:07 Monday February 24, 2025"
*VENDOR "The OpenROAD Project"
*PROGRAM "OpenROAD"
*VERSION "87af90f72f3f9be1fdfa1d886f0dd8d8b8f34694"
*DESIGN_FLOW "NAME_SCOPE LOCAL" "PIN_CAP NONE"
*DIVIDER /
*DELIMITER :
*BUS_DELIMITER []
*T_UNIT 1 NS
*C_UNIT 1 PF
*R_UNIT 1 OHM
*L_UNIT 1 HENRY

*NAME_MAP
*1 E1BEG[0]
*2 E1BEG[1]
*3 E1BEG[2]
*4 E1BEG[3]
*5 E1END[0]
*6 E1END[1]
*7 E1END[2]
*8 E1END[3]
*9 E2BEG[0]
*10 E2BEG[1]
*11 E2BEG[2]
*12 E2BEG[3]
*13 E2BEG[4]
*14 E2BEG[5]
*15 E2BEG[6]
*16 E2BEG[7]
*17 E2BEGb[0]
*18 E2BEGb[1]
*19 E2BEGb[2]
*20 E2BEGb[3]
*21 E2BEGb[4]
*22 E2BEGb[5]
*23 E2BEGb[6]
*24 E2BEGb[7]
*25 E2END[0]
*26 E2END[1]
*27 E2END[2]
*28 E2END[3]
*29 E2END[4]
*30 E2END[5]
*31 E2END[6]
*32 E2END[7]
*33 E2MID[0]
*34 E2MID[1]
*35 E2MID[2]
*36 E2MID[3]
*37 E2MID[4]
*38 E2MID[5]
*39 E2MID[6]
*40 E2MID[7]
*41 E6BEG[0]
*42 E6BEG[10]
*43 E6BEG[11]
*44 E6BEG[1]
*45 E6BEG[2]
*46 E6BEG[3]
*47 E6BEG[4]
*48 E6BEG[5]
*49 E6BEG[6]
*50 E6BEG[7]
*51 E6BEG[8]
*52 E6BEG[9]
*53 E6END[0]
*54 E6END[10]
*55 E6END[11]
*56 E6END[1]
*57 E6END[2]
*58 E6END[3]
*59 E6END[4]
*60 E6END[5]
*61 E6END[6]
*62 E6END[7]
*63 E6END[8]
*64 E6END[9]
*65 EE4BEG[0]
*66 EE4BEG[10]
*67 EE4BEG[11]
*68 EE4BEG[12]
*69 EE4BEG[13]
*70 EE4BEG[14]
*71 EE4BEG[15]
*72 EE4BEG[1]
*73 EE4BEG[2]
*74 EE4BEG[3]
*75 EE4BEG[4]
*76 EE4BEG[5]
*77 EE4BEG[6]
*78 EE4BEG[7]
*79 EE4BEG[8]
*80 EE4BEG[9]
*81 EE4END[0]
*82 EE4END[10]
*83 EE4END[11]
*84 EE4END[12]
*85 EE4END[13]
*86 EE4END[14]
*87 EE4END[15]
*88 EE4END[1]
*89 EE4END[2]
*90 EE4END[3]
*91 EE4END[4]
*92 EE4END[5]
*93 EE4END[6]
*94 EE4END[7]
*95 EE4END[8]
*96 EE4END[9]
*97 FrameData[0]
*98 FrameData[10]
*99 FrameData[11]
*100 FrameData[12]
*101 FrameData[13]
*102 FrameData[14]
*103 FrameData[15]
*104 FrameData[16]
*105 FrameData[17]
*106 FrameData[18]
*107 FrameData[19]
*108 FrameData[1]
*109 FrameData[20]
*110 FrameData[21]
*111 FrameData[22]
*112 FrameData[23]
*113 FrameData[24]
*114 FrameData[25]
*115 FrameData[26]
*116 FrameData[27]
*117 FrameData[28]
*118 FrameData[29]
*119 FrameData[2]
*120 FrameData[30]
*121 FrameData[31]
*122 FrameData[3]
*123 FrameData[4]
*124 FrameData[5]
*125 FrameData[6]
*126 FrameData[7]
*127 FrameData[8]
*128 FrameData[9]
*129 FrameData_O[0]
*130 FrameData_O[10]
*131 FrameData_O[11]
*132 FrameData_O[12]
*133 FrameData_O[13]
*134 FrameData_O[14]
*135 FrameData_O[15]
*136 FrameData_O[16]
*137 FrameData_O[17]
*138 FrameData_O[18]
*139 FrameData_O[19]
*140 FrameData_O[1]
*141 FrameData_O[20]
*142 FrameData_O[21]
*143 FrameData_O[22]
*144 FrameData_O[23]
*145 FrameData_O[24]
*146 FrameData_O[25]
*147 FrameData_O[26]
*148 FrameData_O[27]
*149 FrameData_O[28]
*150 FrameData_O[29]
*151 FrameData_O[2]
*152 FrameData_O[30]
*153 FrameData_O[31]
*154 FrameData_O[3]
*155 FrameData_O[4]
*156 FrameData_O[5]
*157 FrameData_O[6]
*158 FrameData_O[7]
*159 FrameData_O[8]
*160 FrameData_O[9]
*161 FrameStrobe[0]
*162 FrameStrobe[10]
*163 FrameStrobe[11]
*164 FrameStrobe[12]
*165 FrameStrobe[13]
*166 FrameStrobe[14]
*167 FrameStrobe[15]
*168 FrameStrobe[16]
*169 FrameStrobe[17]
*170 FrameStrobe[18]
*171 FrameStrobe[19]
*172 FrameStrobe[1]
*173 FrameStrobe[2]
*174 FrameStrobe[3]
*175 FrameStrobe[4]
*176 FrameStrobe[5]
*177 FrameStrobe[6]
*178 FrameStrobe[7]
*179 FrameStrobe[8]
*180 FrameStrobe[9]
*181 FrameStrobe_O[0]
*182 FrameStrobe_O[10]
*183 FrameStrobe_O[11]
*184 FrameStrobe_O[12]
*185 FrameStrobe_O[13]
*186 FrameStrobe_O[14]
*187 FrameStrobe_O[15]
*188 FrameStrobe_O[16]
*189 FrameStrobe_O[17]
*190 FrameStrobe_O[18]
*191 FrameStrobe_O[19]
*192 FrameStrobe_O[1]
*193 FrameStrobe_O[2]
*194 FrameStrobe_O[3]
*195 FrameStrobe_O[4]
*196 FrameStrobe_O[5]
*197 FrameStrobe_O[6]
*198 FrameStrobe_O[7]
*199 FrameStrobe_O[8]
*200 FrameStrobe_O[9]
*201 N1BEG[0]
*202 N1BEG[1]
*203 N1BEG[2]
*204 N1BEG[3]
*205 N1END[0]
*206 N1END[1]
*207 N1END[2]
*208 N1END[3]
*209 N2BEG[0]
*210 N2BEG[1]
*211 N2BEG[2]
*212 N2BEG[3]
*213 N2BEG[4]
*214 N2BEG[5]
*215 N2BEG[6]
*216 N2BEG[7]
*217 N2BEGb[0]
*218 N2BEGb[1]
*219 N2BEGb[2]
*220 N2BEGb[3]
*221 N2BEGb[4]
*222 N2BEGb[5]
*223 N2BEGb[6]
*224 N2BEGb[7]
*225 N2END[0]
*226 N2END[1]
*227 N2END[2]
*228 N2END[3]
*229 N2END[4]
*230 N2END[5]
*231 N2END[6]
*232 N2END[7]
*233 N2MID[0]
*234 N2MID[1]
*235 N2MID[2]
*236 N2MID[3]
*237 N2MID[4]
*238 N2MID[5]
*239 N2MID[6]
*240 N2MID[7]
*241 N4BEG[0]
*242 N4BEG[10]
*243 N4BEG[11]
*244 N4BEG[12]
*245 N4BEG[13]
*246 N4BEG[14]
*247 N4BEG[15]
*248 N4BEG[1]
*249 N4BEG[2]
*250 N4BEG[3]
*251 N4BEG[4]
*252 N4BEG[5]
*253 N4BEG[6]
*254 N4BEG[7]
*255 N4BEG[8]
*256 N4BEG[9]
*257 N4END[0]
*258 N4END[10]
*259 N4END[11]
*260 N4END[12]
*261 N4END[13]
*262 N4END[14]
*263 N4END[15]
*264 N4END[1]
*265 N4END[2]
*266 N4END[3]
*267 N4END[4]
*268 N4END[5]
*269 N4END[6]
*270 N4END[7]
*271 N4END[8]
*272 N4END[9]
*273 NN4BEG[0]
*274 NN4BEG[10]
*275 NN4BEG[11]
*276 NN4BEG[12]
*277 NN4BEG[13]
*278 NN4BEG[14]
*279 NN4BEG[15]
*280 NN4BEG[1]
*281 NN4BEG[2]
*282 NN4BEG[3]
*283 NN4BEG[4]
*284 NN4BEG[5]
*285 NN4BEG[6]
*286 NN4BEG[7]
*287 NN4BEG[8]
*288 NN4BEG[9]
*289 NN4END[0]
*290 NN4END[10]
*291 NN4END[11]
*292 NN4END[12]
*293 NN4END[13]
*294 NN4END[14]
*295 NN4END[15]
*296 NN4END[1]
*297 NN4END[2]
*298 NN4END[3]
*299 NN4END[4]
*300 NN4END[5]
*301 NN4END[6]
*302 NN4END[7]
*303 NN4END[8]
*304 NN4END[9]
*305 S1BEG[0]
*306 S1BEG[1]
*307 S1BEG[2]
*308 S1BEG[3]
*309 S1END[0]
*310 S1END[1]
*311 S1END[2]
*312 S1END[3]
*313 S2BEG[0]
*314 S2BEG[1]
*315 S2BEG[2]
*316 S2BEG[3]
*317 S2BEG[4]
*318 S2BEG[5]
*319 S2BEG[6]
*320 S2BEG[7]
*321 S2BEGb[0]
*322 S2BEGb[1]
*323 S2BEGb[2]
*324 S2BEGb[3]
*325 S2BEGb[4]
*326 S2BEGb[5]
*327 S2BEGb[6]
*328 S2BEGb[7]
*329 S2END[0]
*330 S2END[1]
*331 S2END[2]
*332 S2END[3]
*333 S2END[4]
*334 S2END[5]
*335 S2END[6]
*336 S2END[7]
*337 S2MID[0]
*338 S2MID[1]
*339 S2MID[2]
*340 S2MID[3]
*341 S2MID[4]
*342 S2MID[5]
*343 S2MID[6]
*344 S2MID[7]
*345 S4BEG[0]
*346 S4BEG[10]
*347 S4BEG[11]
*348 S4BEG[12]
*349 S4BEG[13]
*350 S4BEG[14]
*351 S4BEG[15]
*352 S4BEG[1]
*353 S4BEG[2]
*354 S4BEG[3]
*355 S4BEG[4]
*356 S4BEG[5]
*357 S4BEG[6]
*358 S4BEG[7]
*359 S4BEG[8]
*360 S4BEG[9]
*361 S4END[0]
*362 S4END[10]
*363 S4END[11]
*364 S4END[12]
*365 S4END[13]
*366 S4END[14]
*367 S4END[15]
*368 S4END[1]
*369 S4END[2]
*370 S4END[3]
*371 S4END[4]
*372 S4END[5]
*373 S4END[6]
*374 S4END[7]
*375 S4END[8]
*376 S4END[9]
*377 SS4BEG[0]
*378 SS4BEG[10]
*379 SS4BEG[11]
*380 SS4BEG[12]
*381 SS4BEG[13]
*382 SS4BEG[14]
*383 SS4BEG[15]
*384 SS4BEG[1]
*385 SS4BEG[2]
*386 SS4BEG[3]
*387 SS4BEG[4]
*388 SS4BEG[5]
*389 SS4BEG[6]
*390 SS4BEG[7]
*391 SS4BEG[8]
*392 SS4BEG[9]
*393 SS4END[0]
*394 SS4END[10]
*395 SS4END[11]
*396 SS4END[12]
*397 SS4END[13]
*398 SS4END[14]
*399 SS4END[15]
*400 SS4END[1]
*401 SS4END[2]
*402 SS4END[3]
*403 SS4END[4]
*404 SS4END[5]
*405 SS4END[6]
*406 SS4END[7]
*407 SS4END[8]
*408 SS4END[9]
*409 UserCLK
*410 UserCLKo
*413 W1BEG[0]
*414 W1BEG[1]
*415 W1BEG[2]
*416 W1BEG[3]
*417 W1END[0]
*418 W1END[1]
*419 W1END[2]
*420 W1END[3]
*421 W2BEG[0]
*422 W2BEG[1]
*423 W2BEG[2]
*424 W2BEG[3]
*425 W2BEG[4]
*426 W2BEG[5]
*427 W2BEG[6]
*428 W2BEG[7]
*429 W2BEGb[0]
*430 W2BEGb[1]
*431 W2BEGb[2]
*432 W2BEGb[3]
*433 W2BEGb[4]
*434 W2BEGb[5]
*435 W2BEGb[6]
*436 W2BEGb[7]
*437 W2END[0]
*438 W2END[1]
*439 W2END[2]
*440 W2END[3]
*441 W2END[4]
*442 W2END[5]
*443 W2END[6]
*444 W2END[7]
*445 W2MID[0]
*446 W2MID[1]
*447 W2MID[2]
*448 W2MID[3]
*449 W2MID[4]
*450 W2MID[5]
*451 W2MID[6]
*452 W2MID[7]
*453 W6BEG[0]
*454 W6BEG[10]
*455 W6BEG[11]
*456 W6BEG[1]
*457 W6BEG[2]
*458 W6BEG[3]
*459 W6BEG[4]
*460 W6BEG[5]
*461 W6BEG[6]
*462 W6BEG[7]
*463 W6BEG[8]
*464 W6BEG[9]
*465 W6END[0]
*466 W6END[10]
*467 W6END[11]
*468 W6END[1]
*469 W6END[2]
*470 W6END[3]
*471 W6END[4]
*472 W6END[5]
*473 W6END[6]
*474 W6END[7]
*475 W6END[8]
*476 W6END[9]
*477 WW4BEG[0]
*478 WW4BEG[10]
*479 WW4BEG[11]
*480 WW4BEG[12]
*481 WW4BEG[13]
*482 WW4BEG[14]
*483 WW4BEG[15]
*484 WW4BEG[1]
*485 WW4BEG[2]
*486 WW4BEG[3]
*487 WW4BEG[4]
*488 WW4BEG[5]
*489 WW4BEG[6]
*490 WW4BEG[7]
*491 WW4BEG[8]
*492 WW4BEG[9]
*493 WW4END[0]
*494 WW4END[10]
*495 WW4END[11]
*496 WW4END[12]
*497 WW4END[13]
*498 WW4END[14]
*499 WW4END[15]
*500 WW4END[1]
*501 WW4END[2]
*502 WW4END[3]
*503 WW4END[4]
*504 WW4END[5]
*505 WW4END[6]
*506 WW4END[7]
*507 WW4END[8]
*508 WW4END[9]
*509 AD0
*510 AD1
*511 AD2
*512 AD3
*513 A_ADR0
*514 BD0
*515 BD1
*516 BD2
*517 BD3
*518 B_ADR0
*519 Inst_RegFile_32x4\.AD_comb\[0\]
*520 Inst_RegFile_32x4\.AD_comb\[1\]
*521 Inst_RegFile_32x4\.AD_comb\[2\]
*522 Inst_RegFile_32x4\.AD_comb\[3\]
*523 Inst_RegFile_32x4\.AD_reg\[0\]
*524 Inst_RegFile_32x4\.AD_reg\[1\]
*525 Inst_RegFile_32x4\.AD_reg\[2\]
*526 Inst_RegFile_32x4\.AD_reg\[3\]
*527 Inst_RegFile_32x4\.BD_comb\[0\]
*528 Inst_RegFile_32x4\.BD_comb\[1\]
*529 Inst_RegFile_32x4\.BD_comb\[2\]
*530 Inst_RegFile_32x4\.BD_comb\[3\]
*531 Inst_RegFile_32x4\.BD_reg\[0\]
*532 Inst_RegFile_32x4\.BD_reg\[1\]
*533 Inst_RegFile_32x4\.BD_reg\[2\]
*534 Inst_RegFile_32x4\.BD_reg\[3\]
*535 Inst_RegFile_32x4\.mem\[0\]\[0\]
*536 Inst_RegFile_32x4\.mem\[0\]\[1\]
*537 Inst_RegFile_32x4\.mem\[0\]\[2\]
*538 Inst_RegFile_32x4\.mem\[0\]\[3\]
*539 Inst_RegFile_32x4\.mem\[10\]\[0\]
*540 Inst_RegFile_32x4\.mem\[10\]\[1\]
*541 Inst_RegFile_32x4\.mem\[10\]\[2\]
*542 Inst_RegFile_32x4\.mem\[10\]\[3\]
*543 Inst_RegFile_32x4\.mem\[11\]\[0\]
*544 Inst_RegFile_32x4\.mem\[11\]\[1\]
*545 Inst_RegFile_32x4\.mem\[11\]\[2\]
*546 Inst_RegFile_32x4\.mem\[11\]\[3\]
*547 Inst_RegFile_32x4\.mem\[12\]\[0\]
*548 Inst_RegFile_32x4\.mem\[12\]\[1\]
*549 Inst_RegFile_32x4\.mem\[12\]\[2\]
*550 Inst_RegFile_32x4\.mem\[12\]\[3\]
*551 Inst_RegFile_32x4\.mem\[13\]\[0\]
*552 Inst_RegFile_32x4\.mem\[13\]\[1\]
*553 Inst_RegFile_32x4\.mem\[13\]\[2\]
*554 Inst_RegFile_32x4\.mem\[13\]\[3\]
*555 Inst_RegFile_32x4\.mem\[14\]\[0\]
*556 Inst_RegFile_32x4\.mem\[14\]\[1\]
*557 Inst_RegFile_32x4\.mem\[14\]\[2\]
*558 Inst_RegFile_32x4\.mem\[14\]\[3\]
*559 Inst_RegFile_32x4\.mem\[15\]\[0\]
*560 Inst_RegFile_32x4\.mem\[15\]\[1\]
*561 Inst_RegFile_32x4\.mem\[15\]\[2\]
*562 Inst_RegFile_32x4\.mem\[15\]\[3\]
*563 Inst_RegFile_32x4\.mem\[16\]\[0\]
*564 Inst_RegFile_32x4\.mem\[16\]\[1\]
*565 Inst_RegFile_32x4\.mem\[16\]\[2\]
*566 Inst_RegFile_32x4\.mem\[16\]\[3\]
*567 Inst_RegFile_32x4\.mem\[17\]\[0\]
*568 Inst_RegFile_32x4\.mem\[17\]\[1\]
*569 Inst_RegFile_32x4\.mem\[17\]\[2\]
*570 Inst_RegFile_32x4\.mem\[17\]\[3\]
*571 Inst_RegFile_32x4\.mem\[18\]\[0\]
*572 Inst_RegFile_32x4\.mem\[18\]\[1\]
*573 Inst_RegFile_32x4\.mem\[18\]\[2\]
*574 Inst_RegFile_32x4\.mem\[18\]\[3\]
*575 Inst_RegFile_32x4\.mem\[19\]\[0\]
*576 Inst_RegFile_32x4\.mem\[19\]\[1\]
*577 Inst_RegFile_32x4\.mem\[19\]\[2\]
*578 Inst_RegFile_32x4\.mem\[19\]\[3\]
*579 Inst_RegFile_32x4\.mem\[1\]\[0\]
*580 Inst_RegFile_32x4\.mem\[1\]\[1\]
*581 Inst_RegFile_32x4\.mem\[1\]\[2\]
*582 Inst_RegFile_32x4\.mem\[1\]\[3\]
*583 Inst_RegFile_32x4\.mem\[20\]\[0\]
*584 Inst_RegFile_32x4\.mem\[20\]\[1\]
*585 Inst_RegFile_32x4\.mem\[20\]\[2\]
*586 Inst_RegFile_32x4\.mem\[20\]\[3\]
*587 Inst_RegFile_32x4\.mem\[21\]\[0\]
*588 Inst_RegFile_32x4\.mem\[21\]\[1\]
*589 Inst_RegFile_32x4\.mem\[21\]\[2\]
*590 Inst_RegFile_32x4\.mem\[21\]\[3\]
*591 Inst_RegFile_32x4\.mem\[22\]\[0\]
*592 Inst_RegFile_32x4\.mem\[22\]\[1\]
*593 Inst_RegFile_32x4\.mem\[22\]\[2\]
*594 Inst_RegFile_32x4\.mem\[22\]\[3\]
*595 Inst_RegFile_32x4\.mem\[23\]\[0\]
*596 Inst_RegFile_32x4\.mem\[23\]\[1\]
*597 Inst_RegFile_32x4\.mem\[23\]\[2\]
*598 Inst_RegFile_32x4\.mem\[23\]\[3\]
*599 Inst_RegFile_32x4\.mem\[24\]\[0\]
*600 Inst_RegFile_32x4\.mem\[24\]\[1\]
*601 Inst_RegFile_32x4\.mem\[24\]\[2\]
*602 Inst_RegFile_32x4\.mem\[24\]\[3\]
*603 Inst_RegFile_32x4\.mem\[25\]\[0\]
*604 Inst_RegFile_32x4\.mem\[25\]\[1\]
*605 Inst_RegFile_32x4\.mem\[25\]\[2\]
*606 Inst_RegFile_32x4\.mem\[25\]\[3\]
*607 Inst_RegFile_32x4\.mem\[26\]\[0\]
*608 Inst_RegFile_32x4\.mem\[26\]\[1\]
*609 Inst_RegFile_32x4\.mem\[26\]\[2\]
*610 Inst_RegFile_32x4\.mem\[26\]\[3\]
*611 Inst_RegFile_32x4\.mem\[27\]\[0\]
*612 Inst_RegFile_32x4\.mem\[27\]\[1\]
*613 Inst_RegFile_32x4\.mem\[27\]\[2\]
*614 Inst_RegFile_32x4\.mem\[27\]\[3\]
*615 Inst_RegFile_32x4\.mem\[28\]\[0\]
*616 Inst_RegFile_32x4\.mem\[28\]\[1\]
*617 Inst_RegFile_32x4\.mem\[28\]\[2\]
*618 Inst_RegFile_32x4\.mem\[28\]\[3\]
*619 Inst_RegFile_32x4\.mem\[29\]\[0\]
*620 Inst_RegFile_32x4\.mem\[29\]\[1\]
*621 Inst_RegFile_32x4\.mem\[29\]\[2\]
*622 Inst_RegFile_32x4\.mem\[29\]\[3\]
*623 Inst_RegFile_32x4\.mem\[2\]\[0\]
*624 Inst_RegFile_32x4\.mem\[2\]\[1\]
*625 Inst_RegFile_32x4\.mem\[2\]\[2\]
*626 Inst_RegFile_32x4\.mem\[2\]\[3\]
*627 Inst_RegFile_32x4\.mem\[30\]\[0\]
*628 Inst_RegFile_32x4\.mem\[30\]\[1\]
*629 Inst_RegFile_32x4\.mem\[30\]\[2\]
*630 Inst_RegFile_32x4\.mem\[30\]\[3\]
*631 Inst_RegFile_32x4\.mem\[31\]\[0\]
*632 Inst_RegFile_32x4\.mem\[31\]\[1\]
*633 Inst_RegFile_32x4\.mem\[31\]\[2\]
*634 Inst_RegFile_32x4\.mem\[31\]\[3\]
*635 Inst_RegFile_32x4\.mem\[3\]\[0\]
*636 Inst_RegFile_32x4\.mem\[3\]\[1\]
*637 Inst_RegFile_32x4\.mem\[3\]\[2\]
*638 Inst_RegFile_32x4\.mem\[3\]\[3\]
*639 Inst_RegFile_32x4\.mem\[4\]\[0\]
*640 Inst_RegFile_32x4\.mem\[4\]\[1\]
*641 Inst_RegFile_32x4\.mem\[4\]\[2\]
*642 Inst_RegFile_32x4\.mem\[4\]\[3\]
*643 Inst_RegFile_32x4\.mem\[5\]\[0\]
*644 Inst_RegFile_32x4\.mem\[5\]\[1\]
*645 Inst_RegFile_32x4\.mem\[5\]\[2\]
*646 Inst_RegFile_32x4\.mem\[5\]\[3\]
*647 Inst_RegFile_32x4\.mem\[6\]\[0\]
*648 Inst_RegFile_32x4\.mem\[6\]\[1\]
*649 Inst_RegFile_32x4\.mem\[6\]\[2\]
*650 Inst_RegFile_32x4\.mem\[6\]\[3\]
*651 Inst_RegFile_32x4\.mem\[7\]\[0\]
*652 Inst_RegFile_32x4\.mem\[7\]\[1\]
*653 Inst_RegFile_32x4\.mem\[7\]\[2\]
*654 Inst_RegFile_32x4\.mem\[7\]\[3\]
*655 Inst_RegFile_32x4\.mem\[8\]\[0\]
*656 Inst_RegFile_32x4\.mem\[8\]\[1\]
*657 Inst_RegFile_32x4\.mem\[8\]\[2\]
*658 Inst_RegFile_32x4\.mem\[8\]\[3\]
*659 Inst_RegFile_32x4\.mem\[9\]\[0\]
*660 Inst_RegFile_32x4\.mem\[9\]\[1\]
*661 Inst_RegFile_32x4\.mem\[9\]\[2\]
*662 Inst_RegFile_32x4\.mem\[9\]\[3\]
*663 Inst_RegFile_ConfigMem\.Inst_frame0_bit0\.Q
*664 Inst_RegFile_ConfigMem\.Inst_frame0_bit1\.Q
*665 Inst_RegFile_ConfigMem\.Inst_frame0_bit10\.Q
*666 Inst_RegFile_ConfigMem\.Inst_frame0_bit11\.Q
*667 Inst_RegFile_ConfigMem\.Inst_frame0_bit12\.Q
*668 Inst_RegFile_ConfigMem\.Inst_frame0_bit13\.Q
*669 Inst_RegFile_ConfigMem\.Inst_frame0_bit14\.Q
*670 Inst_RegFile_ConfigMem\.Inst_frame0_bit15\.Q
*671 Inst_RegFile_ConfigMem\.Inst_frame0_bit16\.Q
*672 Inst_RegFile_ConfigMem\.Inst_frame0_bit17\.Q
*673 Inst_RegFile_ConfigMem\.Inst_frame0_bit18\.Q
*674 Inst_RegFile_ConfigMem\.Inst_frame0_bit19\.Q
*675 Inst_RegFile_ConfigMem\.Inst_frame0_bit2\.Q
*676 Inst_RegFile_ConfigMem\.Inst_frame0_bit20\.Q
*677 Inst_RegFile_ConfigMem\.Inst_frame0_bit21\.Q
*678 Inst_RegFile_ConfigMem\.Inst_frame0_bit22\.Q
*679 Inst_RegFile_ConfigMem\.Inst_frame0_bit23\.Q
*680 Inst_RegFile_ConfigMem\.Inst_frame0_bit24\.Q
*681 Inst_RegFile_ConfigMem\.Inst_frame0_bit25\.Q
*682 Inst_RegFile_ConfigMem\.Inst_frame0_bit26\.Q
*683 Inst_RegFile_ConfigMem\.Inst_frame0_bit27\.Q
*684 Inst_RegFile_ConfigMem\.Inst_frame0_bit28\.Q
*685 Inst_RegFile_ConfigMem\.Inst_frame0_bit29\.Q
*686 Inst_RegFile_ConfigMem\.Inst_frame0_bit3\.Q
*687 Inst_RegFile_ConfigMem\.Inst_frame0_bit30\.Q
*688 Inst_RegFile_ConfigMem\.Inst_frame0_bit31\.Q
*689 Inst_RegFile_ConfigMem\.Inst_frame0_bit4\.Q
*690 Inst_RegFile_ConfigMem\.Inst_frame0_bit5\.Q
*691 Inst_RegFile_ConfigMem\.Inst_frame0_bit6\.Q
*692 Inst_RegFile_ConfigMem\.Inst_frame0_bit7\.Q
*693 Inst_RegFile_ConfigMem\.Inst_frame0_bit8\.Q
*694 Inst_RegFile_ConfigMem\.Inst_frame0_bit9\.Q
*695 Inst_RegFile_ConfigMem\.Inst_frame10_bit0\.Q
*696 Inst_RegFile_ConfigMem\.Inst_frame10_bit1\.Q
*697 Inst_RegFile_ConfigMem\.Inst_frame10_bit10\.Q
*698 Inst_RegFile_ConfigMem\.Inst_frame10_bit11\.Q
*699 Inst_RegFile_ConfigMem\.Inst_frame10_bit12\.Q
*700 Inst_RegFile_ConfigMem\.Inst_frame10_bit13\.Q
*701 Inst_RegFile_ConfigMem\.Inst_frame10_bit14\.Q
*702 Inst_RegFile_ConfigMem\.Inst_frame10_bit15\.Q
*703 Inst_RegFile_ConfigMem\.Inst_frame10_bit16\.Q
*704 Inst_RegFile_ConfigMem\.Inst_frame10_bit17\.Q
*705 Inst_RegFile_ConfigMem\.Inst_frame10_bit18\.Q
*706 Inst_RegFile_ConfigMem\.Inst_frame10_bit19\.Q
*707 Inst_RegFile_ConfigMem\.Inst_frame10_bit2\.Q
*708 Inst_RegFile_ConfigMem\.Inst_frame10_bit20\.Q
*709 Inst_RegFile_ConfigMem\.Inst_frame10_bit21\.Q
*710 Inst_RegFile_ConfigMem\.Inst_frame10_bit22\.Q
*711 Inst_RegFile_ConfigMem\.Inst_frame10_bit23\.Q
*712 Inst_RegFile_ConfigMem\.Inst_frame10_bit24\.Q
*713 Inst_RegFile_ConfigMem\.Inst_frame10_bit25\.Q
*714 Inst_RegFile_ConfigMem\.Inst_frame10_bit26\.Q
*715 Inst_RegFile_ConfigMem\.Inst_frame10_bit27\.Q
*716 Inst_RegFile_ConfigMem\.Inst_frame10_bit28\.Q
*717 Inst_RegFile_ConfigMem\.Inst_frame10_bit29\.Q
*718 Inst_RegFile_ConfigMem\.Inst_frame10_bit3\.Q
*719 Inst_RegFile_ConfigMem\.Inst_frame10_bit30\.Q
*720 Inst_RegFile_ConfigMem\.Inst_frame10_bit31\.Q
*721 Inst_RegFile_ConfigMem\.Inst_frame10_bit4\.Q
*722 Inst_RegFile_ConfigMem\.Inst_frame10_bit5\.Q
*723 Inst_RegFile_ConfigMem\.Inst_frame10_bit6\.Q
*724 Inst_RegFile_ConfigMem\.Inst_frame10_bit7\.Q
*725 Inst_RegFile_ConfigMem\.Inst_frame10_bit8\.Q
*726 Inst_RegFile_ConfigMem\.Inst_frame10_bit9\.Q
*727 Inst_RegFile_ConfigMem\.Inst_frame11_bit0\.Q
*728 Inst_RegFile_ConfigMem\.Inst_frame11_bit1\.Q
*729 Inst_RegFile_ConfigMem\.Inst_frame11_bit10\.Q
*730 Inst_RegFile_ConfigMem\.Inst_frame11_bit11\.Q
*731 Inst_RegFile_ConfigMem\.Inst_frame11_bit12\.Q
*732 Inst_RegFile_ConfigMem\.Inst_frame11_bit13\.Q
*733 Inst_RegFile_ConfigMem\.Inst_frame11_bit14\.Q
*734 Inst_RegFile_ConfigMem\.Inst_frame11_bit15\.Q
*735 Inst_RegFile_ConfigMem\.Inst_frame11_bit16\.Q
*736 Inst_RegFile_ConfigMem\.Inst_frame11_bit17\.Q
*737 Inst_RegFile_ConfigMem\.Inst_frame11_bit18\.Q
*738 Inst_RegFile_ConfigMem\.Inst_frame11_bit19\.Q
*739 Inst_RegFile_ConfigMem\.Inst_frame11_bit2\.Q
*740 Inst_RegFile_ConfigMem\.Inst_frame11_bit20\.Q
*741 Inst_RegFile_ConfigMem\.Inst_frame11_bit21\.Q
*742 Inst_RegFile_ConfigMem\.Inst_frame11_bit22\.Q
*743 Inst_RegFile_ConfigMem\.Inst_frame11_bit23\.Q
*744 Inst_RegFile_ConfigMem\.Inst_frame11_bit24\.Q
*745 Inst_RegFile_ConfigMem\.Inst_frame11_bit25\.Q
*746 Inst_RegFile_ConfigMem\.Inst_frame11_bit26\.Q
*747 Inst_RegFile_ConfigMem\.Inst_frame11_bit27\.Q
*748 Inst_RegFile_ConfigMem\.Inst_frame11_bit28\.Q
*749 Inst_RegFile_ConfigMem\.Inst_frame11_bit29\.Q
*750 Inst_RegFile_ConfigMem\.Inst_frame11_bit3\.Q
*751 Inst_RegFile_ConfigMem\.Inst_frame11_bit30\.Q
*752 Inst_RegFile_ConfigMem\.Inst_frame11_bit31\.Q
*753 Inst_RegFile_ConfigMem\.Inst_frame11_bit4\.Q
*754 Inst_RegFile_ConfigMem\.Inst_frame11_bit5\.Q
*755 Inst_RegFile_ConfigMem\.Inst_frame11_bit6\.Q
*756 Inst_RegFile_ConfigMem\.Inst_frame11_bit7\.Q
*757 Inst_RegFile_ConfigMem\.Inst_frame11_bit8\.Q
*758 Inst_RegFile_ConfigMem\.Inst_frame11_bit9\.Q
*759 Inst_RegFile_ConfigMem\.Inst_frame12_bit10\.Q
*760 Inst_RegFile_ConfigMem\.Inst_frame12_bit11\.Q
*761 Inst_RegFile_ConfigMem\.Inst_frame12_bit12\.Q
*762 Inst_RegFile_ConfigMem\.Inst_frame12_bit13\.Q
*763 Inst_RegFile_ConfigMem\.Inst_frame12_bit14\.Q
*764 Inst_RegFile_ConfigMem\.Inst_frame12_bit15\.Q
*765 Inst_RegFile_ConfigMem\.Inst_frame12_bit16\.Q
*766 Inst_RegFile_ConfigMem\.Inst_frame12_bit17\.Q
*767 Inst_RegFile_ConfigMem\.Inst_frame12_bit18\.Q
*768 Inst_RegFile_ConfigMem\.Inst_frame12_bit19\.Q
*769 Inst_RegFile_ConfigMem\.Inst_frame12_bit2\.Q
*770 Inst_RegFile_ConfigMem\.Inst_frame12_bit20\.Q
*771 Inst_RegFile_ConfigMem\.Inst_frame12_bit21\.Q
*772 Inst_RegFile_ConfigMem\.Inst_frame12_bit22\.Q
*773 Inst_RegFile_ConfigMem\.Inst_frame12_bit23\.Q
*774 Inst_RegFile_ConfigMem\.Inst_frame12_bit24\.Q
*775 Inst_RegFile_ConfigMem\.Inst_frame12_bit25\.Q
*776 Inst_RegFile_ConfigMem\.Inst_frame12_bit26\.Q
*777 Inst_RegFile_ConfigMem\.Inst_frame12_bit27\.Q
*778 Inst_RegFile_ConfigMem\.Inst_frame12_bit28\.Q
*779 Inst_RegFile_ConfigMem\.Inst_frame12_bit29\.Q
*780 Inst_RegFile_ConfigMem\.Inst_frame12_bit3\.Q
*781 Inst_RegFile_ConfigMem\.Inst_frame12_bit30\.Q
*782 Inst_RegFile_ConfigMem\.Inst_frame12_bit31\.Q
*783 Inst_RegFile_ConfigMem\.Inst_frame12_bit4\.Q
*784 Inst_RegFile_ConfigMem\.Inst_frame12_bit5\.Q
*785 Inst_RegFile_ConfigMem\.Inst_frame12_bit6\.Q
*786 Inst_RegFile_ConfigMem\.Inst_frame12_bit7\.Q
*787 Inst_RegFile_ConfigMem\.Inst_frame12_bit8\.Q
*788 Inst_RegFile_ConfigMem\.Inst_frame12_bit9\.Q
*789 Inst_RegFile_ConfigMem\.Inst_frame1_bit0\.Q
*790 Inst_RegFile_ConfigMem\.Inst_frame1_bit1\.Q
*791 Inst_RegFile_ConfigMem\.Inst_frame1_bit10\.Q
*792 Inst_RegFile_ConfigMem\.Inst_frame1_bit11\.Q
*793 Inst_RegFile_ConfigMem\.Inst_frame1_bit12\.Q
*794 Inst_RegFile_ConfigMem\.Inst_frame1_bit13\.Q
*795 Inst_RegFile_ConfigMem\.Inst_frame1_bit14\.Q
*796 Inst_RegFile_ConfigMem\.Inst_frame1_bit15\.Q
*797 Inst_RegFile_ConfigMem\.Inst_frame1_bit16\.Q
*798 Inst_RegFile_ConfigMem\.Inst_frame1_bit17\.Q
*799 Inst_RegFile_ConfigMem\.Inst_frame1_bit18\.Q
*800 Inst_RegFile_ConfigMem\.Inst_frame1_bit19\.Q
*801 Inst_RegFile_ConfigMem\.Inst_frame1_bit2\.Q
*802 Inst_RegFile_ConfigMem\.Inst_frame1_bit20\.Q
*803 Inst_RegFile_ConfigMem\.Inst_frame1_bit21\.Q
*804 Inst_RegFile_ConfigMem\.Inst_frame1_bit22\.Q
*805 Inst_RegFile_ConfigMem\.Inst_frame1_bit23\.Q
*806 Inst_RegFile_ConfigMem\.Inst_frame1_bit24\.Q
*807 Inst_RegFile_ConfigMem\.Inst_frame1_bit25\.Q
*808 Inst_RegFile_ConfigMem\.Inst_frame1_bit26\.Q
*809 Inst_RegFile_ConfigMem\.Inst_frame1_bit27\.Q
*810 Inst_RegFile_ConfigMem\.Inst_frame1_bit28\.Q
*811 Inst_RegFile_ConfigMem\.Inst_frame1_bit29\.Q
*812 Inst_RegFile_ConfigMem\.Inst_frame1_bit3\.Q
*813 Inst_RegFile_ConfigMem\.Inst_frame1_bit30\.Q
*814 Inst_RegFile_ConfigMem\.Inst_frame1_bit31\.Q
*815 Inst_RegFile_ConfigMem\.Inst_frame1_bit4\.Q
*816 Inst_RegFile_ConfigMem\.Inst_frame1_bit5\.Q
*817 Inst_RegFile_ConfigMem\.Inst_frame1_bit6\.Q
*818 Inst_RegFile_ConfigMem\.Inst_frame1_bit7\.Q
*819 Inst_RegFile_ConfigMem\.Inst_frame1_bit8\.Q
*820 Inst_RegFile_ConfigMem\.Inst_frame1_bit9\.Q
*821 Inst_RegFile_ConfigMem\.Inst_frame2_bit0\.Q
*822 Inst_RegFile_ConfigMem\.Inst_frame2_bit1\.Q
*823 Inst_RegFile_ConfigMem\.Inst_frame2_bit10\.Q
*824 Inst_RegFile_ConfigMem\.Inst_frame2_bit11\.Q
*825 Inst_RegFile_ConfigMem\.Inst_frame2_bit12\.Q
*826 Inst_RegFile_ConfigMem\.Inst_frame2_bit13\.Q
*827 Inst_RegFile_ConfigMem\.Inst_frame2_bit14\.Q
*828 Inst_RegFile_ConfigMem\.Inst_frame2_bit15\.Q
*829 Inst_RegFile_ConfigMem\.Inst_frame2_bit16\.Q
*830 Inst_RegFile_ConfigMem\.Inst_frame2_bit17\.Q
*831 Inst_RegFile_ConfigMem\.Inst_frame2_bit18\.Q
*832 Inst_RegFile_ConfigMem\.Inst_frame2_bit19\.Q
*833 Inst_RegFile_ConfigMem\.Inst_frame2_bit2\.Q
*834 Inst_RegFile_ConfigMem\.Inst_frame2_bit20\.Q
*835 Inst_RegFile_ConfigMem\.Inst_frame2_bit21\.Q
*836 Inst_RegFile_ConfigMem\.Inst_frame2_bit22\.Q
*837 Inst_RegFile_ConfigMem\.Inst_frame2_bit23\.Q
*838 Inst_RegFile_ConfigMem\.Inst_frame2_bit24\.Q
*839 Inst_RegFile_ConfigMem\.Inst_frame2_bit25\.Q
*840 Inst_RegFile_ConfigMem\.Inst_frame2_bit26\.Q
*841 Inst_RegFile_ConfigMem\.Inst_frame2_bit27\.Q
*842 Inst_RegFile_ConfigMem\.Inst_frame2_bit28\.Q
*843 Inst_RegFile_ConfigMem\.Inst_frame2_bit29\.Q
*844 Inst_RegFile_ConfigMem\.Inst_frame2_bit3\.Q
*845 Inst_RegFile_ConfigMem\.Inst_frame2_bit30\.Q
*846 Inst_RegFile_ConfigMem\.Inst_frame2_bit31\.Q
*847 Inst_RegFile_ConfigMem\.Inst_frame2_bit4\.Q
*848 Inst_RegFile_ConfigMem\.Inst_frame2_bit5\.Q
*849 Inst_RegFile_ConfigMem\.Inst_frame2_bit6\.Q
*850 Inst_RegFile_ConfigMem\.Inst_frame2_bit7\.Q
*851 Inst_RegFile_ConfigMem\.Inst_frame2_bit8\.Q
*852 Inst_RegFile_ConfigMem\.Inst_frame2_bit9\.Q
*853 Inst_RegFile_ConfigMem\.Inst_frame3_bit0\.Q
*854 Inst_RegFile_ConfigMem\.Inst_frame3_bit1\.Q
*855 Inst_RegFile_ConfigMem\.Inst_frame3_bit10\.Q
*856 Inst_RegFile_ConfigMem\.Inst_frame3_bit11\.Q
*857 Inst_RegFile_ConfigMem\.Inst_frame3_bit12\.Q
*858 Inst_RegFile_ConfigMem\.Inst_frame3_bit13\.Q
*859 Inst_RegFile_ConfigMem\.Inst_frame3_bit14\.Q
*860 Inst_RegFile_ConfigMem\.Inst_frame3_bit15\.Q
*861 Inst_RegFile_ConfigMem\.Inst_frame3_bit16\.Q
*862 Inst_RegFile_ConfigMem\.Inst_frame3_bit17\.Q
*863 Inst_RegFile_ConfigMem\.Inst_frame3_bit18\.Q
*864 Inst_RegFile_ConfigMem\.Inst_frame3_bit19\.Q
*865 Inst_RegFile_ConfigMem\.Inst_frame3_bit2\.Q
*866 Inst_RegFile_ConfigMem\.Inst_frame3_bit20\.Q
*867 Inst_RegFile_ConfigMem\.Inst_frame3_bit21\.Q
*868 Inst_RegFile_ConfigMem\.Inst_frame3_bit22\.Q
*869 Inst_RegFile_ConfigMem\.Inst_frame3_bit23\.Q
*870 Inst_RegFile_ConfigMem\.Inst_frame3_bit24\.Q
*871 Inst_RegFile_ConfigMem\.Inst_frame3_bit25\.Q
*872 Inst_RegFile_ConfigMem\.Inst_frame3_bit26\.Q
*873 Inst_RegFile_ConfigMem\.Inst_frame3_bit27\.Q
*874 Inst_RegFile_ConfigMem\.Inst_frame3_bit28\.Q
*875 Inst_RegFile_ConfigMem\.Inst_frame3_bit29\.Q
*876 Inst_RegFile_ConfigMem\.Inst_frame3_bit3\.Q
*877 Inst_RegFile_ConfigMem\.Inst_frame3_bit30\.Q
*878 Inst_RegFile_ConfigMem\.Inst_frame3_bit31\.Q
*879 Inst_RegFile_ConfigMem\.Inst_frame3_bit4\.Q
*880 Inst_RegFile_ConfigMem\.Inst_frame3_bit5\.Q
*881 Inst_RegFile_ConfigMem\.Inst_frame3_bit6\.Q
*882 Inst_RegFile_ConfigMem\.Inst_frame3_bit7\.Q
*883 Inst_RegFile_ConfigMem\.Inst_frame3_bit8\.Q
*884 Inst_RegFile_ConfigMem\.Inst_frame3_bit9\.Q
*885 Inst_RegFile_ConfigMem\.Inst_frame4_bit0\.Q
*886 Inst_RegFile_ConfigMem\.Inst_frame4_bit1\.Q
*887 Inst_RegFile_ConfigMem\.Inst_frame4_bit10\.Q
*888 Inst_RegFile_ConfigMem\.Inst_frame4_bit11\.Q
*889 Inst_RegFile_ConfigMem\.Inst_frame4_bit12\.Q
*890 Inst_RegFile_ConfigMem\.Inst_frame4_bit13\.Q
*891 Inst_RegFile_ConfigMem\.Inst_frame4_bit14\.Q
*892 Inst_RegFile_ConfigMem\.Inst_frame4_bit15\.Q
*893 Inst_RegFile_ConfigMem\.Inst_frame4_bit16\.Q
*894 Inst_RegFile_ConfigMem\.Inst_frame4_bit17\.Q
*895 Inst_RegFile_ConfigMem\.Inst_frame4_bit18\.Q
*896 Inst_RegFile_ConfigMem\.Inst_frame4_bit19\.Q
*897 Inst_RegFile_ConfigMem\.Inst_frame4_bit2\.Q
*898 Inst_RegFile_ConfigMem\.Inst_frame4_bit20\.Q
*899 Inst_RegFile_ConfigMem\.Inst_frame4_bit21\.Q
*900 Inst_RegFile_ConfigMem\.Inst_frame4_bit22\.Q
*901 Inst_RegFile_ConfigMem\.Inst_frame4_bit23\.Q
*902 Inst_RegFile_ConfigMem\.Inst_frame4_bit24\.Q
*903 Inst_RegFile_ConfigMem\.Inst_frame4_bit25\.Q
*904 Inst_RegFile_ConfigMem\.Inst_frame4_bit26\.Q
*905 Inst_RegFile_ConfigMem\.Inst_frame4_bit27\.Q
*906 Inst_RegFile_ConfigMem\.Inst_frame4_bit28\.Q
*907 Inst_RegFile_ConfigMem\.Inst_frame4_bit29\.Q
*908 Inst_RegFile_ConfigMem\.Inst_frame4_bit3\.Q
*909 Inst_RegFile_ConfigMem\.Inst_frame4_bit30\.Q
*910 Inst_RegFile_ConfigMem\.Inst_frame4_bit31\.Q
*911 Inst_RegFile_ConfigMem\.Inst_frame4_bit4\.Q
*912 Inst_RegFile_ConfigMem\.Inst_frame4_bit5\.Q
*913 Inst_RegFile_ConfigMem\.Inst_frame4_bit6\.Q
*914 Inst_RegFile_ConfigMem\.Inst_frame4_bit7\.Q
*915 Inst_RegFile_ConfigMem\.Inst_frame4_bit8\.Q
*916 Inst_RegFile_ConfigMem\.Inst_frame4_bit9\.Q
*917 Inst_RegFile_ConfigMem\.Inst_frame5_bit0\.Q
*918 Inst_RegFile_ConfigMem\.Inst_frame5_bit1\.Q
*919 Inst_RegFile_ConfigMem\.Inst_frame5_bit10\.Q
*920 Inst_RegFile_ConfigMem\.Inst_frame5_bit11\.Q
*921 Inst_RegFile_ConfigMem\.Inst_frame5_bit12\.Q
*922 Inst_RegFile_ConfigMem\.Inst_frame5_bit13\.Q
*923 Inst_RegFile_ConfigMem\.Inst_frame5_bit14\.Q
*924 Inst_RegFile_ConfigMem\.Inst_frame5_bit15\.Q
*925 Inst_RegFile_ConfigMem\.Inst_frame5_bit16\.Q
*926 Inst_RegFile_ConfigMem\.Inst_frame5_bit17\.Q
*927 Inst_RegFile_ConfigMem\.Inst_frame5_bit18\.Q
*928 Inst_RegFile_ConfigMem\.Inst_frame5_bit19\.Q
*929 Inst_RegFile_ConfigMem\.Inst_frame5_bit2\.Q
*930 Inst_RegFile_ConfigMem\.Inst_frame5_bit20\.Q
*931 Inst_RegFile_ConfigMem\.Inst_frame5_bit21\.Q
*932 Inst_RegFile_ConfigMem\.Inst_frame5_bit22\.Q
*933 Inst_RegFile_ConfigMem\.Inst_frame5_bit23\.Q
*934 Inst_RegFile_ConfigMem\.Inst_frame5_bit24\.Q
*935 Inst_RegFile_ConfigMem\.Inst_frame5_bit25\.Q
*936 Inst_RegFile_ConfigMem\.Inst_frame5_bit26\.Q
*937 Inst_RegFile_ConfigMem\.Inst_frame5_bit27\.Q
*938 Inst_RegFile_ConfigMem\.Inst_frame5_bit28\.Q
*939 Inst_RegFile_ConfigMem\.Inst_frame5_bit29\.Q
*940 Inst_RegFile_ConfigMem\.Inst_frame5_bit3\.Q
*941 Inst_RegFile_ConfigMem\.Inst_frame5_bit30\.Q
*942 Inst_RegFile_ConfigMem\.Inst_frame5_bit31\.Q
*943 Inst_RegFile_ConfigMem\.Inst_frame5_bit4\.Q
*944 Inst_RegFile_ConfigMem\.Inst_frame5_bit5\.Q
*945 Inst_RegFile_ConfigMem\.Inst_frame5_bit6\.Q
*946 Inst_RegFile_ConfigMem\.Inst_frame5_bit7\.Q
*947 Inst_RegFile_ConfigMem\.Inst_frame5_bit8\.Q
*948 Inst_RegFile_ConfigMem\.Inst_frame5_bit9\.Q
*949 Inst_RegFile_ConfigMem\.Inst_frame6_bit0\.Q
*950 Inst_RegFile_ConfigMem\.Inst_frame6_bit1\.Q
*951 Inst_RegFile_ConfigMem\.Inst_frame6_bit10\.Q
*952 Inst_RegFile_ConfigMem\.Inst_frame6_bit11\.Q
*953 Inst_RegFile_ConfigMem\.Inst_frame6_bit12\.Q
*954 Inst_RegFile_ConfigMem\.Inst_frame6_bit13\.Q
*955 Inst_RegFile_ConfigMem\.Inst_frame6_bit14\.Q
*956 Inst_RegFile_ConfigMem\.Inst_frame6_bit15\.Q
*957 Inst_RegFile_ConfigMem\.Inst_frame6_bit16\.Q
*958 Inst_RegFile_ConfigMem\.Inst_frame6_bit17\.Q
*959 Inst_RegFile_ConfigMem\.Inst_frame6_bit18\.Q
*960 Inst_RegFile_ConfigMem\.Inst_frame6_bit19\.Q
*961 Inst_RegFile_ConfigMem\.Inst_frame6_bit2\.Q
*962 Inst_RegFile_ConfigMem\.Inst_frame6_bit20\.Q
*963 Inst_RegFile_ConfigMem\.Inst_frame6_bit21\.Q
*964 Inst_RegFile_ConfigMem\.Inst_frame6_bit22\.Q
*965 Inst_RegFile_ConfigMem\.Inst_frame6_bit23\.Q
*966 Inst_RegFile_ConfigMem\.Inst_frame6_bit24\.Q
*967 Inst_RegFile_ConfigMem\.Inst_frame6_bit25\.Q
*968 Inst_RegFile_ConfigMem\.Inst_frame6_bit26\.Q
*969 Inst_RegFile_ConfigMem\.Inst_frame6_bit27\.Q
*970 Inst_RegFile_ConfigMem\.Inst_frame6_bit28\.Q
*971 Inst_RegFile_ConfigMem\.Inst_frame6_bit29\.Q
*972 Inst_RegFile_ConfigMem\.Inst_frame6_bit3\.Q
*973 Inst_RegFile_ConfigMem\.Inst_frame6_bit30\.Q
*974 Inst_RegFile_ConfigMem\.Inst_frame6_bit31\.Q
*975 Inst_RegFile_ConfigMem\.Inst_frame6_bit4\.Q
*976 Inst_RegFile_ConfigMem\.Inst_frame6_bit5\.Q
*977 Inst_RegFile_ConfigMem\.Inst_frame6_bit6\.Q
*978 Inst_RegFile_ConfigMem\.Inst_frame6_bit7\.Q
*979 Inst_RegFile_ConfigMem\.Inst_frame6_bit8\.Q
*980 Inst_RegFile_ConfigMem\.Inst_frame6_bit9\.Q
*981 Inst_RegFile_ConfigMem\.Inst_frame7_bit0\.Q
*982 Inst_RegFile_ConfigMem\.Inst_frame7_bit1\.Q
*983 Inst_RegFile_ConfigMem\.Inst_frame7_bit10\.Q
*984 Inst_RegFile_ConfigMem\.Inst_frame7_bit11\.Q
*985 Inst_RegFile_ConfigMem\.Inst_frame7_bit12\.Q