*SPEF "ieee 1481-1999"
*DESIGN "S_term_single"
*DATE "08:53:11 Monday February 24, 2025"
*VENDOR "The OpenROAD Project"
*PROGRAM "OpenROAD"
*VERSION "87af90f72f3f9be1fdfa1d886f0dd8d8b8f34694"
*DESIGN_FLOW "NAME_SCOPE LOCAL" "PIN_CAP NONE"
*DIVIDER /
*DELIMITER :
*BUS_DELIMITER []
*T_UNIT 1 NS
*C_UNIT 1 PF
*R_UNIT 1 OHM
*L_UNIT 1 HENRY

*NAME_MAP
*1 net106
*2 FrameData[0]
*3 FrameData[10]
*4 FrameData[11]
*5 FrameData[12]
*6 FrameData[13]
*7 FrameData[14]
*8 FrameData[15]
*9 FrameData[16]
*10 FrameData[17]
*11 FrameData[18]
*12 FrameData[19]
*13 FrameData[1]
*14 FrameData[20]
*15 FrameData[21]
*16 FrameData[22]
*17 FrameData[23]
*18 FrameData[24]
*19 FrameData[25]
*20 FrameData[26]
*21 FrameData[27]
*22 FrameData[28]
*23 FrameData[29]
*24 FrameData[2]
*25 FrameData[30]
*26 FrameData[31]
*27 FrameData[3]
*28 FrameData[4]
*29 FrameData[5]
*30 FrameData[6]
*31 FrameData[7]
*32 FrameData[8]
*33 FrameData[9]
*34 FrameData_O[0]
*35 FrameData_O[10]
*36 FrameData_O[11]
*37 FrameData_O[12]
*38 FrameData_O[13]
*39 FrameData_O[14]
*40 FrameData_O[15]
*41 FrameData_O[16]
*42 FrameData_O[17]
*43 FrameData_O[18]
*44 FrameData_O[19]
*45 FrameData_O[1]
*46 FrameData_O[20]
*47 FrameData_O[21]
*48 FrameData_O[22]
*49 FrameData_O[23]
*50 FrameData_O[24]
*51 FrameData_O[25]
*52 FrameData_O[26]
*53 FrameData_O[27]
*54 FrameData_O[28]
*55 FrameData_O[29]
*56 FrameData_O[2]
*57 FrameData_O[30]
*58 FrameData_O[31]
*59 FrameData_O[3]
*60 FrameData_O[4]
*61 FrameData_O[5]
*62 FrameData_O[6]
*63 FrameData_O[7]
*64 FrameData_O[8]
*65 FrameData_O[9]
*66 FrameStrobe[0]
*67 FrameStrobe[10]
*68 FrameStrobe[11]
*69 FrameStrobe[12]
*70 FrameStrobe[13]
*71 FrameStrobe[14]
*72 FrameStrobe[15]
*73 FrameStrobe[16]
*74 FrameStrobe[17]
*75 FrameStrobe[18]
*76 FrameStrobe[19]
*77 FrameStrobe[1]
*78 FrameStrobe[2]
*79 FrameStrobe[3]
*80 FrameStrobe[4]
*81 FrameStrobe[5]
*82 FrameStrobe[6]
*83 FrameStrobe[7]
*84 FrameStrobe[8]
*85 FrameStrobe[9]
*86 FrameStrobe_O[0]
*87 FrameStrobe_O[10]
*88 FrameStrobe_O[11]
*89 FrameStrobe_O[12]
*90 FrameStrobe_O[13]
*91 FrameStrobe_O[14]
*92 FrameStrobe_O[15]
*93 FrameStrobe_O[16]
*94 FrameStrobe_O[17]
*95 FrameStrobe_O[18]
*96 FrameStrobe_O[19]
*97 FrameStrobe_O[1]
*98 FrameStrobe_O[2]
*99 FrameStrobe_O[3]
*100 FrameStrobe_O[4]
*101 FrameStrobe_O[5]
*102 FrameStrobe_O[6]
*103 FrameStrobe_O[7]
*104 FrameStrobe_O[8]
*105 FrameStrobe_O[9]
*106 N1BEG[0]
*107 N1BEG[1]
*108 N1BEG[2]
*109 N1BEG[3]
*110 N2BEG[0]
*111 N2BEG[1]
*112 N2BEG[2]
*113 N2BEG[3]
*114 N2BEG[4]
*115 N2BEG[5]
*116 N2BEG[6]
*117 N2BEG[7]
*118 N2BEGb[0]
*119 N2BEGb[1]
*120 N2BEGb[2]
*121 N2BEGb[3]
*122 N2BEGb[4]
*123 N2BEGb[5]
*124 N2BEGb[6]
*125 N2BEGb[7]
*126 N4BEG[0]
*127 N4BEG[10]
*128 N4BEG[11]
*129 N4BEG[12]
*130 N4BEG[13]
*131 N4BEG[14]
*132 N4BEG[15]
*133 N4BEG[1]
*134 N4BEG[2]
*135 N4BEG[3]
*136 N4BEG[4]
*137 N4BEG[5]
*138 N4BEG[6]
*139 N4BEG[7]
*140 N4BEG[8]
*141 N4BEG[9]
*142 NN4BEG[0]
*143 NN4BEG[10]
*144 NN4BEG[11]
*145 NN4BEG[12]
*146 NN4BEG[13]
*147 NN4BEG[14]
*148 NN4BEG[15]
*149 NN4BEG[1]
*150 NN4BEG[2]
*151 NN4BEG[3]
*152 NN4BEG[4]
*153 NN4BEG[5]
*154 NN4BEG[6]
*155 NN4BEG[7]
*156 NN4BEG[8]
*157 NN4BEG[9]
*158 S1END[0]
*159 S1END[1]
*160 S1END[2]
*161 S1END[3]
*162 S2END[0]
*163 S2END[1]
*164 S2END[2]
*165 S2END[3]
*166 S2END[4]
*167 S2END[5]
*168 S2END[6]
*169 S2END[7]
*170 S2MID[0]
*171 S2MID[1]
*172 S2MID[2]
*173 S2MID[3]
*174 S2MID[4]
*175 S2MID[5]
*176 S2MID[6]
*177 S2MID[7]
*178 S4END[0]
*179 S4END[10]
*180 S4END[11]
*181 S4END[12]
*182 S4END[13]
*183 S4END[14]
*184 S4END[15]
*185 S4END[1]
*186 S4END[2]
*187 S4END[3]
*188 S4END[4]
*189 S4END[5]
*190 S4END[6]
*191 S4END[7]
*192 S4END[8]
*193 S4END[9]
*194 SS4END[0]
*195 SS4END[10]
*196 SS4END[11]
*197 SS4END[12]
*198 SS4END[13]
*199 SS4END[14]
*200 SS4END[15]
*201 SS4END[1]
*202 SS4END[2]
*203 SS4END[3]
*204 SS4END[4]
*205 SS4END[5]
*206 SS4END[6]
*207 SS4END[7]
*208 SS4END[8]
*209 SS4END[9]
*210 UserCLK
*211 UserCLKo
*214 net1
*215 net10
*216 net100
*217 net101
*218 net102
*219 net103
*220 net104
*221 net105
*222 net11
*223 net12
*224 net13
*225 net14
*226 net15
*227 net16
*228 net17
*229 net18
*230 net19
*231 net2
*232 net20
*233 net21
*234 net22
*235 net23
*236 net24
*237 net25
*238 net26
*239 net27
*240 net28
*241 net29
*242 net3
*243 net30
*244 net31
*245 net32
*246 net33
*247 net34
*248 net35
*249 net36
*250 net37
*251 net38
*252 net39
*253 net4
*254 net40
*255 net41
*256 net42
*257 net43
*258 net44
*259 net45
*260 net46
*261 net47
*262 net48
*263 net49
*264 net5
*265 net50
*266 net51
*267 net52
*268 net53
*269 net54
*270 net55
*271 net56
*272 net57
*273 net58
*274 net59
*275 net6
*276 net60
*277 net61
*278 net62
*279 net63
*280 net64
*281 net65
*282 net66
*283 net67
*284 net68
*285 net69
*286 net7
*287 net70
*288 net71
*289 net72
*290 net73
*291 net74
*292 net75
*293 net76
*294 net77
*295 net78
*296 net79
*297 net8
*298 net80
*299 net81
*300 net82
*301 net83
*302 net84
*303 net85
*304 net86
*305 net87
*306 net88
*307 net89
*308 net9
*309 net90
*310 net91
*311 net92
*312 net93
*313 net94
*314 net95
*315 net96
*316 net97
*317 net98
*318 net99
*319 ANTENNA_1
*320 ANTENNA_10
*321 ANTENNA_11
*322 ANTENNA_12
*323 ANTENNA_13
*324 ANTENNA_14
*325 ANTENNA_15
*326 ANTENNA_16
*327 ANTENNA_17
*328 ANTENNA_18
*329 ANTENNA_19
*330 ANTENNA_2
*331 ANTENNA_20
*332 ANTENNA_21
*333 ANTENNA_22
*334 ANTENNA_23
*335 ANTENNA_24
*336 ANTENNA_25
*337 ANTENNA_26
*338 ANTENNA_27
*339 ANTENNA_28
*340 ANTENNA_29
*341 ANTENNA_3
*342 ANTENNA_30
*343 ANTENNA_31
*344 ANTENNA_32
*345 ANTENNA_33
*346 ANTENNA_34
*347 ANTENNA_35
*348 ANTENNA_4
*349 ANTENNA_5
*350 ANTENNA_6
*351 ANTENNA_7
*352 ANTENNA_8
*353 ANTENNA_9
*354 FILLER_0_109
*355 FILLER_0_113
*356 FILLER_0_125
*357 FILLER_0_137
*358 FILLER_0_141
*359 FILLER_0_15
*360 FILLER_0_153
*361 FILLER_0_165
*362 FILLER_0_169
*363 FILLER_0_181
*364 FILLER_0_193
*365 FILLER_0_197
*366 FILLER_0_209
*367 FILLER_0_221
*368 FILLER_0_225
*369 FILLER_0_237
*370 FILLER_0_249
*371 FILLER_0_253
*372 FILLER_0_265
*373 FILLER_0_27
*374 FILLER_0_277
*375 FILLER_0_281
*376 FILLER_0_29
*377 FILLER_0_293
*378 FILLER_0_3
*379 FILLER_0_305
*380 FILLER_0_309
*381 FILLER_0_321
*382 FILLER_0_333
*383 FILLER_0_337
*384 FILLER_0_349
*385 FILLER_0_361
*386 FILLER_0_365
*387 FILLER_0_377
*388 FILLER_0_389
*389 FILLER_0_393
*390 FILLER_0_397
*391 FILLER_0_41
*392 FILLER_0_53
*393 FILLER_0_57
*394 FILLER_0_69
*395 FILLER_0_81
*396 FILLER_0_85
*397 FILLER_0_97
*398 FILLER_10_101
*399 FILLER_10_106
*400 FILLER_10_110
*401 FILLER_10_124
*402 FILLER_10_130
*403 FILLER_10_139
*404 FILLER_10_148
*405 FILLER_10_15
*406 FILLER_10_161
*407 FILLER_10_166
*408 FILLER_10_178
*409 FILLER_10_182
*410 FILLER_10_194
*411 FILLER_10_205
*412 FILLER_10_213
*413 FILLER_10_221
*414 FILLER_10_23
*415 FILLER_10_230
*416 FILLER_10_238
*417 FILLER_10_242
*418 FILLER_10_246
*419 FILLER_10_253
*420 FILLER_10_265
*421 FILLER_10_277
*422 FILLER_10_285
*423 FILLER_10_292
*424 FILLER_10_3
*425 FILLER_10_304
*426 FILLER_10_309
*427 FILLER_10_321
*428 FILLER_10_328
*429 FILLER_10_340
*430 FILLER_10_346
*431 FILLER_10_350
*432 FILLER_10_362
*433 FILLER_10_369
*434 FILLER_10_37
*435 FILLER_10_379
*436 FILLER_10_385
*437 FILLER_10_391
*438 FILLER_10_403
*439 FILLER_10_41
*440 FILLER_10_46
*441 FILLER_10_58
*442 FILLER_10_64
*443 FILLER_10_70
*444 FILLER_10_77
*445 FILLER_10_82
*446 FILLER_10_89
*447 FILLER_10_97
*448 FILLER_11_113
*449 FILLER_11_141
*450 FILLER_11_15
*451 FILLER_11_169
*452 FILLER_11_175
*453 FILLER_11_188
*454 FILLER_11_19
*455 FILLER_11_197
*456 FILLER_11_209
*457 FILLER_11_221
*458 FILLER_11_225
*459 FILLER_11_237
*460 FILLER_11_249
*461 FILLER_11_253
*462 FILLER_11_265
*463 FILLER_11_277
*464 FILLER_11_281
*465 FILLER_11_29
*466 FILLER_11_293
*467 FILLER_11_3
*468 FILLER_11_305
*469 FILLER_11_309
*470 FILLER_11_321
*471 FILLER_11_333
*472 FILLER_11_337
*473 FILLER_11_362
*474 FILLER_11_389
*475 FILLER_11_409
*476 FILLER_11_57
*477 FILLER_11_85
*478 FILLER_1_111
*479 FILLER_1_113
*480 FILLER_1_125
*481 FILLER_1_134
*482 FILLER_1_146
*483 FILLER_1_15
*484 FILLER_1_158
*485 FILLER_1_165
*486 FILLER_1_169
*487 FILLER_1_175
*488 FILLER_1_183
*489 FILLER_1_189
*490 FILLER_1_201
*491 FILLER_1_209
*492 FILLER_1_217
*493 FILLER_1_223
*494 FILLER_1_225
*495 FILLER_1_237
*496 FILLER_1_245
*497 FILLER_1_254
*498 FILLER_1_260
*499 FILLER_1_27
*500 FILLER_1_272
*501 FILLER_1_284
*502 FILLER_1_292
*503 FILLER_1_296
*504 FILLER_1_3
*505 FILLER_1_302
*506 FILLER_1_319
*507 FILLER_1_331
*508 FILLER_1_335
*509 FILLER_1_337
*510 FILLER_1_349
*511 FILLER_1_355
*512 FILLER_1_367
*513 FILLER_1_379
*514 FILLER_1_39
*515 FILLER_1_391
*516 FILLER_1_393
*517 FILLER_1_405
*518 FILLER_1_409
*519 FILLER_1_51
*520 FILLER_1_55
*521 FILLER_1_57
*522 FILLER_1_69
*523 FILLER_1_81
*524 FILLER_1_87
*525 FILLER_1_99
*526 FILLER_2_105
*527 FILLER_2_110
*528 FILLER_2_122
*529 FILLER_2_134
*530 FILLER_2_141
*531 FILLER_2_147
*532 FILLER_2_15
*533 FILLER_2_153
*534 FILLER_2_165
*535 FILLER_2_180
*536 FILLER_2_192
*537 FILLER_2_197
*538 FILLER_2_205
*539 FILLER_2_213
*540 FILLER_2_225
*541 FILLER_2_237
*542 FILLER_2_249
*543 FILLER_2_253
*544 FILLER_2_265
*545 FILLER_2_27
*546 FILLER_2_277
*547 FILLER_2_289
*548 FILLER_2_29
*549 FILLER_2_3
*550 FILLER_2_301
*551 FILLER_2_307
*552 FILLER_2_309
*553 FILLER_2_316
*554 FILLER_2_328
*555 FILLER_2_340
*556 FILLER_2_352
*557 FILLER_2_365
*558 FILLER_2_377
*559 FILLER_2_389
*560 FILLER_2_401
*561 FILLER_2_409
*562 FILLER_2_41
*563 FILLER_2_53
*564 FILLER_2_65
*565 FILLER_2_77
*566 FILLER_2_83
*567 FILLER_2_85
*568 FILLER_2_97
*569 FILLER_3_109
*570 FILLER_3_113
*571 FILLER_3_125
*572 FILLER_3_133
*573 FILLER_3_139
*574 FILLER_3_15
*575 FILLER_3_151
*576 FILLER_3_163
*577 FILLER_3_167
*578 FILLER_3_169
*579 FILLER_3_181
*580 FILLER_3_193
*581 FILLER_3_205
*582 FILLER_3_217
*583 FILLER_3_223
*584 FILLER_3_225
*585 FILLER_3_237
*586 FILLER_3_243
*587 FILLER_3_255
*588 FILLER_3_267
*589 FILLER_3_27
*590 FILLER_3_279
*591 FILLER_3_281
*592 FILLER_3_293
*593 FILLER_3_3
*594 FILLER_3_305
*595 FILLER_3_320
*596 FILLER_3_332
*597 FILLER_3_337
*598 FILLER_3_349
*599 FILLER_3_361
*600 FILLER_3_373
*601 FILLER_3_381
*602 FILLER_3_385
*603 FILLER_3_39
*604 FILLER_3_391
*605 FILLER_3_393
*606 FILLER_3_405
*607 FILLER_3_409
*608 FILLER_3_47
*609 FILLER_3_53
*610 FILLER_3_57
*611 FILLER_3_69
*612 FILLER_3_81
*613 FILLER_3_97
*614 FILLER_4_105
*615 FILLER_4_113
*616 FILLER_4_125
*617 FILLER_4_137
*618 FILLER_4_141
*619 FILLER_4_15
*620 FILLER_4_150
*621 FILLER_4_162
*622 FILLER_4_170
*623 FILLER_4_182
*624 FILLER_4_190
*625 FILLER_4_197
*626 FILLER_4_212
*627 FILLER_4_224
*628 FILLER_4_236
*629 FILLER_4_247
*630 FILLER_4_251
*631 FILLER_4_253
*632 FILLER_4_265
*633 FILLER_4_27
*634 FILLER_4_277
*635 FILLER_4_289
*636 FILLER_4_29
*637 FILLER_4_293
*638 FILLER_4_297
*639 FILLER_4_3
*640 FILLER_4_305
*641 FILLER_4_309
*642 FILLER_4_321
*643 FILLER_4_333
*644 FILLER_4_337
*645 FILLER_4_349
*646 FILLER_4_356
*647 FILLER_4_365
*648 FILLER_4_377
*649 FILLER_4_389
*650 FILLER_4_401
*651 FILLER_4_409
*652 FILLER_4_41
*653 FILLER_4_53
*654 FILLER_4_65
*655 FILLER_4_77
*656 FILLER_4_83
*657 FILLER_4_85
*658 FILLER_4_97
*659 FILLER_5_105
*660 FILLER_5_111
*661 FILLER_5_113
*662 FILLER_5_125
*663 FILLER_5_132
*664 FILLER_5_144
*665 FILLER_5_15
*666 FILLER_5_156
*667 FILLER_5_163
*668 FILLER_5_167
*669 FILLER_5_177
*670 FILLER_5_181
*671 FILLER_5_185
*672 FILLER_5_197
*673 FILLER_5_209
*674 FILLER_5_221
*675 FILLER_5_228
*676 FILLER_5_240
*677 FILLER_5_252
*678 FILLER_5_264
*679 FILLER_5_27
*680 FILLER_5_276
*681 FILLER_5_284
*682 FILLER_5_296
*683 FILLER_5_3
*684 FILLER_5_308
*685 FILLER_5_320
*686 FILLER_5_332
*687 FILLER_5_337
*688 FILLER_5_349
*689 FILLER_5_361
*690 FILLER_5_373
*691 FILLER_5_385
*692 FILLER_5_39
*693 FILLER_5_391
*694 FILLER_5_393
*695 FILLER_5_405
*696 FILLER_5_409
*697 FILLER_5_45
*698 FILLER_5_52
*699 FILLER_5_57
*700 FILLER_5_69
*701 FILLER_5_81
*702 FILLER_5_93
*703 FILLER_6_109
*704 FILLER_6_113
*705 FILLER_6_117
*706 FILLER_6_129
*707 FILLER_6_137
*708 FILLER_6_141
*709 FILLER_6_15
*710 FILLER_6_153
*711 FILLER_6_165
*712 FILLER_6_177
*713 FILLER_6_185
*714 FILLER_6_192
*715 FILLER_6_197
*716 FILLER_6_209
*717 FILLER_6_221
*718 FILLER_6_233
*719 FILLER_6_245
*720 FILLER_6_251
*721 FILLER_6_253
*722 FILLER_6_265
*723 FILLER_6_27
*724 FILLER_6_273
*725 FILLER_6_285
*726 FILLER_6_296
*727 FILLER_6_3
*728 FILLER_6_309
*729 FILLER_6_321
*730 FILLER_6_333
*731 FILLER_6_34
*732 FILLER_6_345
*733 FILLER_6_357
*734 FILLER_6_363
*735 FILLER_6_365
*736 FILLER_6_374
*737 FILLER_6_378
*738 FILLER_6_393
*739 FILLER_6_40
*740 FILLER_6_401
*741 FILLER_6_405
*742 FILLER_6_409
*743 FILLER_6_44
*744 FILLER_6_51
*745 FILLER_6_59
*746 FILLER_6_63
*747 FILLER_6_68
*748 FILLER_6_80
*749 FILLER_6_85
*750 FILLER_6_97
*751 FILLER_7_102
*752 FILLER_7_106
*753 FILLER_7_113
*754 FILLER_7_117
*755 FILLER_7_129
*756 FILLER_7_141
*757 FILLER_7_15
*758 FILLER_7_153
*759 FILLER_7_165
*760 FILLER_7_169
*761 FILLER_7_181
*762 FILLER_7_193
*763 FILLER_7_201
*764 FILLER_7_213
*765 FILLER_7_221
*766 FILLER_7_225
*767 FILLER_7_237
*768 FILLER_7_24
*769 FILLER_7_249
*770 FILLER_7_254
*771 FILLER_7_266
*772 FILLER_7_274
*773 FILLER_7_278
*774 FILLER_7_281
*775 FILLER_7_293
*776 FILLER_7_3
*777 FILLER_7_30
*778 FILLER_7_305
*779 FILLER_7_309
*780 FILLER_7_321
*781 FILLER_7_333
*782 FILLER_7_337
*783 FILLER_7_349
*784 FILLER_7_361
*785 FILLER_7_373
*786 FILLER_7_385
*787 FILLER_7_39
*788 FILLER_7_391
*789 FILLER_7_393
*790 FILLER_7_405
*791 FILLER_7_409
*792 FILLER_7_51
*793 FILLER_7_55
*794 FILLER_7_57
*795 FILLER_7_69
*796 FILLER_7_74
*797 FILLER_7_84
*798 FILLER_7_96
*799 FILLER_8_105
*800 FILLER_8_117
*801 FILLER_8_129
*802 FILLER_8_137
*803 FILLER_8_141
*804 FILLER_8_153
*805 FILLER_8_165
*806 FILLER_8_177
*807 FILLER_8_189
*808 FILLER_8_195
*809 FILLER_8_197
*810 FILLER_8_20
*811 FILLER_8_209
*812 FILLER_8_221
*813 FILLER_8_229
*814 FILLER_8_235
*815 FILLER_8_247
*816 FILLER_8_251
*817 FILLER_8_253
*818 FILLER_8_261
*819 FILLER_8_267
*820 FILLER_8_279
*821 FILLER_8_29
*822 FILLER_8_291
*823 FILLER_8_3
*824 FILLER_8_303
*825 FILLER_8_307
*826 FILLER_8_309
*827 FILLER_8_315
*828 FILLER_8_327
*829 FILLER_8_339
*830 FILLER_8_351
*831 FILLER_8_357
*832 FILLER_8_361
*833 FILLER_8_365
*834 FILLER_8_377
*835 FILLER_8_389
*836 FILLER_8_401
*837 FILLER_8_405
*838 FILLER_8_41
*839 FILLER_8_53
*840 FILLER_8_65
*841 FILLER_8_77
*842 FILLER_8_83
*843 FILLER_8_85
*844 FILLER_8_93
*845 FILLER_9_107
*846 FILLER_9_111
*847 FILLER_9_113
*848 FILLER_9_125
*849 FILLER_9_137
*850 FILLER_9_15
*851 FILLER_9_150
*852 FILLER_9_158
*853 FILLER_9_163
*854 FILLER_9_167
*855 FILLER_9_169
*856 FILLER_9_177
*857 FILLER_9_183
*858 FILLER_9_19
*859 FILLER_9_195
*860 FILLER_9_207
*861 FILLER_9_215
*862 FILLER_9_221
*863 FILLER_9_225
*864 FILLER_9_237
*865 FILLER_9_245
*866 FILLER_9_249
*867 FILLER_9_261
*868 FILLER_9_273
*869 FILLER_9_279
*870 FILLER_9_281
*871 FILLER_9_293
*872 FILLER_9_3
*873 FILLER_9_305
*874 FILLER_9_31
*875 FILLER_9_317
*876 FILLER_9_328
*877 FILLER_9_337
*878 FILLER_9_349
*879 FILLER_9_361
*880 FILLER_9_373
*881 FILLER_9_385
*882 FILLER_9_391
*883 FILLER_9_393
*884 FILLER_9_397
*885 FILLER_9_43
*886 FILLER_9_55
*887 FILLER_9_57
*888 FILLER_9_69
*889 FILLER_9_74
*890 FILLER_9_86
*891 FILLER_9_95
*892 PHY_EDGE_ROW_0_Left_12
*893 PHY_EDGE_ROW_0_Right_0
*894 PHY_EDGE_ROW_10_Left_22
*895 PHY_EDGE_ROW_10_Right_10
*896 PHY_EDGE_ROW_11_Left_23
*897 PHY_EDGE_ROW_11_Right_11
*898 PHY_EDGE_ROW_1_Left_13
*899 PHY_EDGE_ROW_1_Right_1
*900 PHY_EDGE_ROW_2_Left_14
*901 PHY_EDGE_ROW_2_Right_2
*902 PHY_EDGE_ROW_3_Left_15
*903 PHY_EDGE_ROW_3_Right_3
*904 PHY_EDGE_ROW_4_Left_16
*905 PHY_EDGE_ROW_4_Right_4
*906 PHY_EDGE_ROW_5_Left_17
*907 PHY_EDGE_ROW_5_Right_5
*908 PHY_EDGE_ROW_6_Left_18
*909 PHY_EDGE_ROW_6_Right_6
*910 PHY_EDGE_ROW_7_Left_19
*911 PHY_EDGE_ROW_7_Right_7
*912 PHY_EDGE_ROW_8_Left_20
*913 PHY_EDGE_ROW_8_Right_8
*914 PHY_EDGE_ROW_9_Left_21
*915 PHY_EDGE_ROW_9_Right_9
*916 S_term_single_106
*917 TAP_TAPCELL_ROW_0_24
*918 TAP_TAPCELL_ROW_0_25
*919 TAP_TAPCELL_ROW_0_26
*920 TAP_TAPCELL_ROW_0_27
*921 TAP_TAPCELL_ROW_0_28
*922 TAP_TAPCELL_ROW_0_29
*923 TAP_TAPCELL_ROW_0_30
*924 TAP_TAPCELL_ROW_0_31
*925 TAP_TAPCELL_ROW_0_32
*926 TAP_TAPCELL_ROW_0_33
*927 TAP_TAPCELL_ROW_0_34
*928 TAP_TAPCELL_ROW_0_35
*929 TAP_TAPCELL_ROW_0_36
*930 TAP_TAPCELL_ROW_0_37
*931 TAP_TAPCELL_ROW_10_101
*932 TAP_TAPCELL_ROW_10_102
*933 TAP_TAPCELL_ROW_10_103
*934 TAP_TAPCELL_ROW_10_104
*935 TAP_TAPCELL_ROW_10_105
*936 TAP_TAPCELL_ROW_10_106
*937 TAP_TAPCELL_ROW_10_107
*938 TAP_TAPCELL_ROW_11_108
*939 TAP_TAPCELL_ROW_11_109
*940 TAP_TAPCELL_ROW_11_110
*941 TAP_TAPCELL_ROW_11_111
*942 TAP_TAPCELL_ROW_11_112
*943 TAP_TAPCELL_ROW_11_113
*944 TAP_TAPCELL_ROW_11_114
*945 TAP_TAPCELL_ROW_11_115
*946 TAP_TAPCELL_ROW_11_116
*947 TAP_TAPCELL_ROW_11_117
*948 TAP_TAPCELL_ROW_11_118
*949 TAP_TAPCELL_ROW_11_119
*950 TAP_TAPCELL_ROW_11_120
*951 TAP_TAPCELL_ROW_11_121
*952 TAP_TAPCELL_ROW_1_38
*953 TAP_TAPCELL_ROW_1_39
*954 TAP_TAPCELL_ROW_1_40
*955 TAP_TAPCELL_ROW_1_41
*956 TAP_TAPCELL_ROW_1_42
*957 TAP_TAPCELL_ROW_1_43
*958 TAP_TAPCELL_ROW_1_44
*959 TAP_TAPCELL_ROW_2_45
*960 TAP_TAPCELL_ROW_2_46
*961 TAP_TAPCELL_ROW_2_47
*962 TAP_TAPCELL_ROW_2_48
*963 TAP_TAPCELL_ROW_2_49
*964 TAP_TAPCELL_ROW_2_50
*965 TAP_TAPCELL_ROW_2_51
*966 TAP_TAPCELL_ROW_3_52
*967 TAP_TAPCELL_ROW_3_53
*968 TAP_TAPCELL_ROW_3_54
*969 TAP_TAPCELL_ROW_3_55
*970 TAP_TAPCELL_ROW_3_56
*971 TAP_TAPCELL_ROW_3_57
*972 TAP_TAPCELL_ROW_3_58
*973 TAP_TAPCELL_ROW_4_59
*974 TAP_TAPCELL_ROW_4_60
*975 TAP_TAPCELL_ROW_4_61
*976 TAP_TAPCELL_ROW_4_62
*977 TAP_TAPCELL_ROW_4_63
*978 TAP_TAPCELL_ROW_4_64
*979 TAP_TAPCELL_ROW_4_65
*980 TAP_TAPCELL_ROW_5_66
*981 TAP_TAPCELL_ROW_5_67
*982 TAP_TAPCELL_ROW_5_68
*983 TAP_TAPCELL_ROW_5_69
*984 TAP_TAPCELL_ROW_5_70
*985 TAP_TAPCELL_ROW_5_71
*986 TAP_TAPCELL_ROW_5_72
*987 TAP_TAPCELL_ROW_6_73
*988 TAP_TAPCELL_ROW_6_74
*989 TAP_TAPCELL_ROW_6_75
*990 TAP_TAPCELL_ROW_6_76
*991 TAP_TAPCELL_ROW_6_77
*992 TAP_TAPCELL_ROW_6_78
*993 TAP_TAPCELL_ROW_6_79
*994 TAP_TAPCELL_ROW_7_80
*995 TAP_TAPCELL_ROW_7_81
*996 TAP_TAPCELL_ROW_7_82
*997 TAP_TAPCELL_ROW_7_83
*998 TAP_TAPCELL_ROW_7_84
*999 TAP_TAPCELL_ROW_7_85
*1000 TAP_TAPCELL_ROW_7_86
*1001 TAP_TAPCELL_ROW_8_87
*1002 TAP_TAPCELL_ROW_8_88
*1003 TAP_TAPCELL_ROW_8_89
*1004 TAP_TAPCELL_ROW_8_90
*1005 TAP_TAPCELL_ROW_8_91
*1006 TAP_TAPCELL_ROW_8_92
*1007 TAP_TAPCELL_ROW_8_93
*1008 TAP_TAPCELL_ROW_9_100
*1009 TAP_TAPCELL_ROW_9_94
*1010 TAP_TAPCELL_ROW_9_95
*1011 TAP_TAPCELL_ROW_9_96
*1012 TAP_TAPCELL_ROW_9_97
*1013 TAP_TAPCELL_ROW_9_98
*1014 TAP_TAPCELL_ROW_9_99
*1015 _001_
*1016 _002_
*1017 _003_
*1018 _004_
*1019 _005_
*1020 _006_
*1021 _007_
*1022 _008_
*1023 _009_
*1024 _010_
*1025 _011_
*1026 _012_
*1027 _013_
*1028 _014_
*1029 _015_
*1030 _016_
*1031 _017_
*1032 _018_
*1033 _019_
*1034 _020_
*1035 _021_
*1036 _022_
*1037 _023_
*1038 _024_
*1039 _025_
*1040 _026_
*1041 _027_
*1042 _028_
*1043 _029_
*1044 _030_
*1045 _031_
*1046 _032_
*1047 _033_
*1048 _034_
*1049 _035_
*1050 _036_
*1051 _037_
*1052 _038_
*1053 _039_
*1054 _040_
*1055 _041_
*1056 _042_
*1057 _043_
*1058 _044_
*1059 _045_
*1060 _046_
*1061 _047_
*1062 _048_
*1063 _049_
*1064 _050_
*1065 _051_
*1066 _052_
*1067 _053_
*1068 _054_
*1069 _055_
*1070 _056_
*1071 _057_
*1072 _058_
*1073 _059_
*1074 _060_
*1075 _061_
*1076 _062_
*1077 _063_
*1078 _064_
*1079 _065_
*1080 _066_
*1081 _067_
*1082 _068_
*1083 _069_
*1084 _070_
*1085 _071_
*1086 _072_
*1087 _073_
*1088 _074_
*1089 _075_
*1090 _076_
*1091 _077_
*1092 _078_
*1093 _079_
*1094 _080_
*1095 _081_
*1096 _082_
*1097 _083_
*1098 _084_
*1099 _085_
*1100 _086_
*1101 _087_
*1102 _088_
*1103 _089_
*1104 _090_
*1105 _091_
*1106 _092_
*1107 _093_
*1108 _094_
*1109 _095_
*1110 _096_
*1111 _097_
*1112 _098_
*1113 _099_
*1114 _100_
*1115 _101_
*1116 _102_
*1117 _103_
*1118 _104_
*1119 _105_
*1120 output1
*1121 output10
*1122 output100
*1123 output101
*1124 output102
*1125 output103
*1126 output104
*1127 output105
*1128 output11
*1129 output12
*1130 output13
*1131 output14
*1132 output15
*1133 output16
*1134 output17
*1135 output18
*1136 output19
*1137 output2
*1138 output20
*1139 output21
*1140 output22
*1141 output23
*1142 output24
*1143 output25
*1144 output26
*1145 output27
*1146 output28
*1147 output29
*1148 output3
*1149 output30
*1150 output31
*1151 output32
*1152 output33
*1153 output34
*1154 output35
*1155 output36
*1156 output37
*1157 output38
*1158 output39
*1159 output4
*1160 output40
*1161 output41
*1162 output42
*1163 output43
*1164 output44
*1165 output45
*1166 output46
*1167 output47
*1168 output48
*1169 output49
*1170 output5
*1171 output50
*1172 output51
*1173 output52
*1174 output53
*1175 output54
*1176 output55
*1177 output56
*1178 output57
*1179 output58
*1180 output59
*1181 output6
*1182 output60
*1183 output61
*1184 output62
*1185 output63
*1186 output64
*1187 output65
*1188 output66
*1189 output67
*1190 output68
*1191 output69
*1192 output7
*1193 output70
*1194 output71
*1195 output72
*1196 output73
*1197 output74
*1198 output75
*1199 output76
*1200 output77
*1201 output78
*1202 output79
*1203 output8
*1204 output80
*1205 output81
*1206 output82
*1207 output83
*1208 output84
*1209 output85
*1210 output86
*1211 output87
*1212 output88
*1213 output89
*1214 output9
*1215 output90
*1216 output91
*1217 output92
*1218 output93
*1219 output94
*1220 output95
*1221 output96
*1222 output97
*1223 output98
*1224 output99

*PORTS
Co O
FrameData[0] I
FrameData[10] I
FrameData[11] I
FrameData[12] I
FrameData[13] I
FrameData[14] I
FrameData[15] I
FrameData[16] I
FrameData[17] I
FrameData[18] I
FrameData[19] I
FrameData[1] I
FrameData[20] I
FrameData[21] I
FrameData[22] I
FrameData[23] I
FrameData[24] I
FrameData[25] I
FrameData[26] I
FrameData[27] I
FrameData[28] I
FrameData[29] I
FrameData[2] I
FrameData[30] I
FrameData[31] I
FrameData[3] I
FrameData[4] I
FrameData[5] I
FrameData[6] I
FrameData[7] I
FrameData[8] I
FrameData[9] I
FrameData_O[0] O
FrameData_O[10] O
FrameData_O[11] O
FrameData_O[12] O
FrameData_O[13] O
FrameData_O[14] O
FrameData_O[15] O
FrameData_O[16] O
FrameData_O[17] O
FrameData_O[18] O
FrameData_O[19] O
FrameData_O[1] O
FrameData_O[20] O
FrameData_O[21] O
FrameData_O[22] O
FrameData_O[23] O
FrameData_O[24] O
FrameData_O[25] O
FrameData_O[26] O
FrameData_O[27] O
FrameData_O[28] O
FrameData_O[29] O
FrameData_O[2] O
FrameData_O[30] O
FrameData_O[31] O
FrameData_O[3] O
FrameData_O[4] O
FrameData_O[5] O
FrameData_O[6] O
FrameData_O[7] O
FrameData_O[8] O
FrameData_O[9] O
FrameStrobe[0] I
FrameStrobe[10] I
FrameStrobe[11] I
FrameStrobe[12] I
FrameStrobe[13] I
FrameStrobe[14] I
FrameStrobe[15] I
FrameStrobe[16] I
FrameStrobe[17] I
FrameStrobe[18] I
FrameStrobe[19] I
FrameStrobe[1] I
FrameStrobe[2] I
FrameStrobe[3] I
FrameStrobe[4] I
FrameStrobe[5] I
FrameStrobe[6] I
FrameStrobe[7] I
FrameStrobe[8] I
FrameStrobe[9] I
FrameStrobe_O[0] O
FrameStrobe_O[10] O
FrameStrobe_O[11] O
FrameStrobe_O[12] O
FrameStrobe_O[13] O
FrameStrobe_O[14] O
FrameStrobe_O[15] O
FrameStrobe_O[16] O
FrameStrobe_O[17] O
FrameStrobe_O[18] O
FrameStrobe_O[19] O
FrameStrobe_O[1] O
FrameStrobe_O[2] O
FrameStrobe_O[3] O
FrameStrobe_O[4] O
FrameStrobe_O[5] O
FrameStrobe_O[6] O
FrameStrobe_O[7] O
FrameStrobe_O[8] O
FrameStrobe_O[9] O
N1BEG[0] O
N1BEG[1] O
N1BEG[2] O
N1BEG[3] O
N2BEG[0] O
N2BEG[1] O
N2BEG[2] O
N2BEG[3] O
N2BEG[4] O
N2BEG[5] O
N2BEG[6] O
N2BEG[7] O
N2BEGb[0] O
N2BEGb[1] O
N2BEGb[2] O
N2BEGb[3] O
N2BEGb[4] O
N2BEGb[5] O
N2BEGb[6] O
N2BEGb[7] O
N4BEG[0] O
N4BEG[10] O
N4BEG[11] O
N4BEG[12] O
N4BEG[13] O
N4BEG[14] O
N4BEG[15] O
N4BEG[1] O
N4BEG[2] O
N4BEG[3] O
N4BEG[4] O
N4BEG[5] O
N4BEG[6] O
N4BEG[7] O
N4BEG[8] O
N4BEG[9] O
NN4BEG[0] O
NN4BEG[10] O
NN4BEG[11] O
NN4BEG[12] O
NN4BEG[13] O
NN4BEG[14] O
NN4BEG[15] O
NN4BEG[1] O
NN4BEG[2] O
NN4BEG[3] O
NN4BEG[4] O
NN4BEG[5] O
NN4BEG[6] O
NN4BEG[7] O
NN4BEG[8] O
NN4BEG[9] O
S1END[0] I
S1END[1] I
S1END[2] I
S1END[3] I
S2END[0] I
S2END[1] I
S2END[2] I
S2END[3] I
S2END[4] I
S2END[5] I
S2END[6] I
S2END[7] I
S2MID[0] I
S2MID[1] I
S2MID[2] I
S2MID[3] I
S2MID[4] I
S2MID[5] I
S2MID[6] I
S2MID[7] I
S4END[0] I
S4END[10] I
S4END[11] I
S4END[12] I
S4END[13] I
S4END[14] I
S4END[15] I
S4END[1] I
S4END[2] I
S4END[3] I
S4END[4] I
S4END[5] I
S4END[6] I
S4END[7] I
S4END[8] I
S4END[9] I
SS4END[0] I
SS4END[10] I
SS4END[11] I
SS4END[12] I
SS4END[13] I
SS4END[14] I
SS4END[15] I
SS4END[1] I
SS4END[2] I
SS4END[3] I
SS4END[4] I
SS4END[5] I
SS4END[6] I
SS4END[7] I
SS4END[8] I
SS4END[9] I
UserCLK I
UserCLKo O

*D_NET *1 0.0026062
*CONN
*P Co O
*I *916:LO O *D sky130_fd_sc_hd__conb_1
*CAP
1 Co 0.000725705
2 *916:LO 0.000149069
3 *1:14 0.000874774
4 Co NN4BEG[15] 0.000266788
5 Co *1220:A 4.77164e-06
6 Co *147:8 2.79032e-05
7 Co *158:9 0.000202415
8 Co *187:17 0
9 Co *289:12 0
10 *1:14 *311:28 0.000150439
11 *1:14 *312:12 0.000166879
12 *1:14 *313:20 3.74519e-05
*RES
1 *916:LO *1:14 41.7907 
2 *1:14 Co 14.3343 
*END

*D_NET *2 0.0117381
*CONN
*P FrameData[0] I
*I *1015:A I *D sky130_fd_sc_hd__buf_1
*I *319:DIODE I *D sky130_fd_sc_hd__diode_2
*CAP
1 FrameData[0] 0.00232512
2 *1015:A 6.74574e-06
3 *319:DIODE 0.00102929
4 *2:11 0.00334767
5 *319:DIODE *13:13 0.00161749
6 *319:DIODE *29:19 0.000309286
7 *1015:A *17:13 5.67058e-05
8 *1015:A *24:13 5.67058e-05
9 *2:11 *13:11 0.00298911
10 *2:11 *28:9 0
11 *2:11 *79:13 0
*RES
1 FrameData[0] *2:11 39.309 
2 *2:11 *319:DIODE 40.7729 
3 *319:DIODE *1015:A 46.6214 
*END

*D_NET *3 0.018957
*CONN
*P FrameData[10] I
*I *1025:A I *D sky130_fd_sc_hd__buf_1
*I *330:DIODE I *D sky130_fd_sc_hd__diode_2
*CAP
1 FrameData[10] 0.00272134
2 *1025:A 8.37909e-06
3 *330:DIODE 0.00114447
4 *3:11 0.00385743
5 *330:DIODE *168:19 0.000745607
6 *330:DIODE *218:8 1.32314e-05
7 *330:DIODE *218:20 0.000474166
8 *1025:A *172:11 3.22879e-05
9 *1025:A *218:8 5.67058e-05
10 *3:11 *4:21 0.00169736
11 *3:11 *8:15 0.000123844
12 *3:11 *31:17 0.00609647
13 *3:11 *32:17 0.000156774
14 *3:11 *33:23 0.000909045
15 *3:11 *169:29 0
16 *3:11 *174:31 0.000125789
17 *3:11 *192:15 0.000161343
18 *3:11 *308:16 0.00063273
*RES
1 FrameData[10] *3:11 44.2893 
2 *3:11 *330:DIODE 40.7729 
3 *330:DIODE *1025:A 46.6214 
*END

*D_NET *4 0.0180886
*CONN
*P FrameData[11] I
*I *1026:A I *D sky130_fd_sc_hd__buf_1
*I *341:DIODE I *D sky130_fd_sc_hd__diode_2
*CAP
1 FrameData[11] 0.00368573
2 *1026:A 6.74574e-06
3 *341:DIODE 6.74574e-06
4 *4:21 0.00368573
5 *1026:A *174:27 5.67058e-05
6 *1026:A *298:12 5.67058e-05
7 *4:21 *5:11 0.00341837
8 *4:21 *8:15 0.00325614
9 *4:21 *12:17 0.000218029
10 *4:21 *169:29 0.000100139
11 *4:21 *169:35 0.000389517
12 *4:21 *190:9 0.00031136
13 *4:21 *226:14 0.00014196
14 *4:21 *233:16 4.93549e-05
15 *4:21 *289:12 0
16 *4:21 *298:12 0.000146971
17 *4:21 *308:16 0.000861021
18 *3:11 *4:21 0.00169736
*RES
1 FrameData[11] *4:21 46.6942 
2 *4:21 *341:DIODE 23 
3 *341:DIODE *1026:A 46.6214 
*END

*D_NET *5 0.0123537
*CONN
*P FrameData[12] I
*I *1027:A I *D sky130_fd_sc_hd__buf_1
*CAP
1 FrameData[12] 0.00133303
2 *1027:A 0
3 *5:13 0.00103364
4 *5:11 0.00236667
5 *5:11 *6:15 0.000578145
6 *5:11 *7:17 0.00133266
7 *5:11 *8:15 4.6521e-05
8 *5:11 *32:17 3.39192e-05
9 *5:13 *31:17 0.000500169
10 *5:13 *32:17 0.000712876
11 *5:13 *244:6 0.000997696
12 *4:21 *5:11 0.00341837
*RES
1 FrameData[12] *5:11 33.7953 
2 *5:11 *5:13 28.2543 
3 *5:13 *1027:A 23 
*END

*D_NET *6 0.00681631
*CONN
*P FrameData[13] I
*I *1028:A I *D sky130_fd_sc_hd__clkbuf_2
*CAP
1 FrameData[13] 0.00111789
2 *1028:A 0
3 *6:15 0.00111789
4 *6:15 *1074:A 7.72948e-05
5 *6:15 *7:17 0.00243152
6 *6:15 *8:15 0.00149356
7 *5:11 *6:15 0.000578145
*RES
1 FrameData[13] *6:15 33.4765 
2 *6:15 *1028:A 23 
*END

*D_NET *7 0.010558
*CONN
*P FrameData[14] I
*I *1029:A I *D sky130_fd_sc_hd__clkbuf_2
*CAP
1 FrameData[14] 0.00165807
2 *1029:A 0
3 *7:21 0.000715748
4 *7:17 0.00237382
5 *7:17 *8:15 0.00116542
6 *7:17 *32:17 0
7 *7:17 *78:13 0
8 *7:21 *33:23 0.000248575
9 *7:21 *264:12 0.000632162
10 *5:11 *7:17 0.00133266
11 *6:15 *7:17 0.00243152
*RES
1 FrameData[14] *7:17 40.3816 
2 *7:17 *7:21 32.7729 
3 *7:21 *1029:A 23 
*END

*D_NET *8 0.0154855
*CONN
*P FrameData[15] I
*I *1030:A I *D sky130_fd_sc_hd__buf_1
*I *348:DIODE I *D sky130_fd_sc_hd__diode_2
*CAP
1 FrameData[15] 0.00307101
2 *1030:A 2.57005e-05
3 *348:DIODE 2.57005e-05
4 *8:15 0.00307101
5 *1030:A *275:6 5.73309e-05
6 *8:15 *9:11 0.000675057
7 *8:15 *12:17 0.00209686
8 *8:15 *192:15 0.0001635
9 *8:15 *305:8 0.0002138
10 *3:11 *8:15 0.000123844
11 *4:21 *8:15 0.00325614
12 *5:11 *8:15 4.6521e-05
13 *6:15 *8:15 0.00149356
14 *7:17 *8:15 0.00116542
*RES
1 FrameData[15] *8:15 45.5398 
2 *8:15 *348:DIODE 23 
3 *348:DIODE *1030:A 46.6214 
*END

*D_NET *9 0.0225612
*CONN
*P FrameData[16] I
*I *1031:A I *D sky130_fd_sc_hd__buf_1
*CAP
1 FrameData[16] 0.00154975
2 *1031:A 0
3 *9:19 0.00025867
4 *9:13 0.00396029
5 *9:11 0.00525136
6 *9:11 *10:17 0.000491931
7 *9:11 *11:11 0.000150275
8 *9:11 *12:17 0.000333014
9 *9:11 *31:17 0
10 *9:11 *66:13 0.000589381
11 *9:13 *28:9 0.00117805
12 *9:13 *83:9 0.00227738
13 *9:13 *238:12 0.00584606
14 *9:19 *85:7 0
15 *8:15 *9:11 0.000675057
*RES
1 FrameData[16] *9:11 44.1202 
2 *9:11 *9:13 93.0486 
3 *9:13 *9:19 33.6664 
4 *9:19 *1031:A 23 
*END

*D_NET *10 0.0145979
*CONN
*P FrameData[17] I
*I *1032:A I *D sky130_fd_sc_hd__clkbuf_2
*I *349:DIODE I *D sky130_fd_sc_hd__diode_2
*CAP
1 FrameData[17] 0.00292323
2 *1032:A 3.71825e-05
3 *349:DIODE 4.80593e-05
4 *10:17 0.0029341
5 *349:DIODE *174:31 5.67058e-05
6 *349:DIODE *304:6 5.50049e-05
7 *1032:A *174:31 0.00010018
8 *10:17 *11:11 0.00182984
9 *10:17 *12:17 0.00050033
10 *10:17 *14:11 0.0046389
11 *10:17 *165:43 0.000154733
12 *10:17 *173:23 0
13 *10:17 *177:13 0.000110155
14 *10:17 *177:25 0.000113661
15 *10:17 *280:12 0.000322238
16 *10:17 *304:12 4.80231e-05
17 *10:17 *305:14 0.000233627
18 *9:11 *10:17 0.000491931
*RES
1 FrameData[17] *10:17 48.6604 
2 *10:17 *349:DIODE 38.6214 
3 *349:DIODE *1032:A 47.0979 
*END

*D_NET *11 0.0191064
*CONN
*P FrameData[18] I
*I *1033:A I *D sky130_fd_sc_hd__buf_1
*I *350:DIODE I *D sky130_fd_sc_hd__diode_2
*CAP
1 FrameData[18] 0.00425704