*SPEF "ieee 1481-1999"
*DESIGN "EF_SRAM"
*DATE "19:13:29 Sunday February 23, 2025"
*VENDOR "The OpenROAD Project"
*PROGRAM "OpenROAD"
*VERSION "87af90f72f3f9be1fdfa1d886f0dd8d8b8f34694"
*DESIGN_FLOW "NAME_SCOPE LOCAL" "PIN_CAP NONE"
*DIVIDER /
*DELIMITER :
*BUS_DELIMITER []
*T_UNIT 1 NS
*C_UNIT 1 PF
*R_UNIT 1 OHM
*L_UNIT 1 HENRY

*NAME_MAP
*1 AD_SRAM0
*2 AD_SRAM1
*3 AD_SRAM2
*4 AD_SRAM3
*5 AD_SRAM4
*6 AD_SRAM5
*7 AD_SRAM6
*8 AD_SRAM7
*9 AD_SRAM8
*10 AD_SRAM9
*11 BEN_SRAM0
*12 BEN_SRAM1
*13 BEN_SRAM10
*14 BEN_SRAM11
*15 BEN_SRAM12
*16 BEN_SRAM13
*17 BEN_SRAM14
*18 BEN_SRAM15
*19 BEN_SRAM16
*20 BEN_SRAM17
*21 BEN_SRAM18
*22 BEN_SRAM19
*23 BEN_SRAM2
*24 BEN_SRAM20
*25 BEN_SRAM21
*26 BEN_SRAM22
*27 BEN_SRAM23
*28 BEN_SRAM24
*29 BEN_SRAM25
*30 BEN_SRAM26
*31 BEN_SRAM27
*32 BEN_SRAM28
*33 BEN_SRAM29
*34 BEN_SRAM3
*35 BEN_SRAM30
*36 BEN_SRAM31
*37 BEN_SRAM4
*38 BEN_SRAM5
*39 BEN_SRAM6
*40 BEN_SRAM7
*41 BEN_SRAM8
*42 BEN_SRAM9
*43 CLOCK_SRAM
*44 DI_SRAM0
*45 DI_SRAM1
*46 DI_SRAM10
*47 DI_SRAM11
*48 DI_SRAM12
*49 DI_SRAM13
*50 DI_SRAM14
*51 DI_SRAM15
*52 DI_SRAM16
*53 DI_SRAM17
*54 DI_SRAM18
*55 DI_SRAM19
*56 DI_SRAM2
*57 DI_SRAM20
*58 DI_SRAM21
*59 DI_SRAM22
*60 DI_SRAM23
*61 DI_SRAM24
*62 DI_SRAM25
*63 DI_SRAM26
*64 DI_SRAM27
*65 DI_SRAM28
*66 DI_SRAM29
*67 DI_SRAM3
*68 DI_SRAM30
*69 DI_SRAM31
*70 DI_SRAM4
*71 DI_SRAM5
*72 DI_SRAM6
*73 DI_SRAM7
*74 DI_SRAM8
*75 DI_SRAM9
*76 DO_SRAM0
*77 DO_SRAM1
*78 DO_SRAM10
*79 DO_SRAM11
*80 DO_SRAM12
*81 DO_SRAM13
*82 DO_SRAM14
*83 DO_SRAM15
*84 DO_SRAM16
*85 DO_SRAM17
*86 DO_SRAM18
*87 DO_SRAM19
*88 DO_SRAM2
*89 DO_SRAM20
*90 DO_SRAM21
*91 DO_SRAM22
*92 DO_SRAM23
*93 DO_SRAM24
*94 DO_SRAM25
*95 DO_SRAM26
*96 DO_SRAM27
*97 DO_SRAM28
*98 DO_SRAM29
*99 DO_SRAM3
*100 DO_SRAM30
*101 DO_SRAM31
*102 DO_SRAM4
*103 DO_SRAM5
*104 DO_SRAM6
*105 DO_SRAM7
*106 DO_SRAM8
*107 DO_SRAM9
*108 EN_SRAM
*109 R_WB_SRAM
*110 Tile_X0Y0_E1END[0]
*111 Tile_X0Y0_E1END[1]
*112 Tile_X0Y0_E1END[2]
*113 Tile_X0Y0_E1END[3]
*114 Tile_X0Y0_E2END[0]
*115 Tile_X0Y0_E2END[1]
*116 Tile_X0Y0_E2END[2]
*117 Tile_X0Y0_E2END[3]
*118 Tile_X0Y0_E2END[4]
*119 Tile_X0Y0_E2END[5]
*120 Tile_X0Y0_E2END[6]
*121 Tile_X0Y0_E2END[7]
*122 Tile_X0Y0_E2MID[0]
*123 Tile_X0Y0_E2MID[1]
*124 Tile_X0Y0_E2MID[2]
*125 Tile_X0Y0_E2MID[3]
*126 Tile_X0Y0_E2MID[4]
*127 Tile_X0Y0_E2MID[5]
*128 Tile_X0Y0_E2MID[6]
*129 Tile_X0Y0_E2MID[7]
*130 Tile_X0Y0_E6END[0]
*131 Tile_X0Y0_E6END[10]
*132 Tile_X0Y0_E6END[11]
*133 Tile_X0Y0_E6END[1]
*134 Tile_X0Y0_E6END[2]
*135 Tile_X0Y0_E6END[3]
*136 Tile_X0Y0_E6END[4]
*137 Tile_X0Y0_E6END[5]
*138 Tile_X0Y0_E6END[6]
*139 Tile_X0Y0_E6END[7]
*140 Tile_X0Y0_E6END[8]
*141 Tile_X0Y0_E6END[9]
*142 Tile_X0Y0_EE4END[0]
*143 Tile_X0Y0_EE4END[10]
*144 Tile_X0Y0_EE4END[11]
*145 Tile_X0Y0_EE4END[12]
*146 Tile_X0Y0_EE4END[13]
*147 Tile_X0Y0_EE4END[14]
*148 Tile_X0Y0_EE4END[15]
*149 Tile_X0Y0_EE4END[1]
*150 Tile_X0Y0_EE4END[2]
*151 Tile_X0Y0_EE4END[3]
*152 Tile_X0Y0_EE4END[4]
*153 Tile_X0Y0_EE4END[5]
*154 Tile_X0Y0_EE4END[6]
*155 Tile_X0Y0_EE4END[7]
*156 Tile_X0Y0_EE4END[8]
*157 Tile_X0Y0_EE4END[9]
*158 Tile_X0Y0_FrameData[0]
*159 Tile_X0Y0_FrameData[10]
*160 Tile_X0Y0_FrameData[11]
*161 Tile_X0Y0_FrameData[12]
*162 Tile_X0Y0_FrameData[13]
*163 Tile_X0Y0_FrameData[14]
*164 Tile_X0Y0_FrameData[15]
*165 Tile_X0Y0_FrameData[16]
*166 Tile_X0Y0_FrameData[17]
*167 Tile_X0Y0_FrameData[18]
*168 Tile_X0Y0_FrameData[19]
*169 Tile_X0Y0_FrameData[1]
*170 Tile_X0Y0_FrameData[20]
*171 Tile_X0Y0_FrameData[21]
*172 Tile_X0Y0_FrameData[22]
*173 Tile_X0Y0_FrameData[23]
*174 Tile_X0Y0_FrameData[24]
*175 Tile_X0Y0_FrameData[25]
*176 Tile_X0Y0_FrameData[26]
*177 Tile_X0Y0_FrameData[27]
*178 Tile_X0Y0_FrameData[28]
*179 Tile_X0Y0_FrameData[29]
*180 Tile_X0Y0_FrameData[2]
*181 Tile_X0Y0_FrameData[30]
*182 Tile_X0Y0_FrameData[31]
*183 Tile_X0Y0_FrameData[3]
*184 Tile_X0Y0_FrameData[4]
*185 Tile_X0Y0_FrameData[5]
*186 Tile_X0Y0_FrameData[6]
*187 Tile_X0Y0_FrameData[7]
*188 Tile_X0Y0_FrameData[8]
*189 Tile_X0Y0_FrameData[9]
*190 Tile_X0Y0_FrameData_O[0]
*191 Tile_X0Y0_FrameData_O[10]
*192 Tile_X0Y0_FrameData_O[11]
*193 Tile_X0Y0_FrameData_O[12]
*194 Tile_X0Y0_FrameData_O[13]
*195 Tile_X0Y0_FrameData_O[14]
*196 Tile_X0Y0_FrameData_O[15]
*197 Tile_X0Y0_FrameData_O[16]
*198 Tile_X0Y0_FrameData_O[17]
*199 Tile_X0Y0_FrameData_O[18]
*200 Tile_X0Y0_FrameData_O[19]
*201 Tile_X0Y0_FrameData_O[1]
*202 Tile_X0Y0_FrameData_O[20]
*203 Tile_X0Y0_FrameData_O[21]
*204 Tile_X0Y0_FrameData_O[22]
*205 Tile_X0Y0_FrameData_O[23]
*206 Tile_X0Y0_FrameData_O[24]
*207 Tile_X0Y0_FrameData_O[25]
*208 Tile_X0Y0_FrameData_O[26]
*209 Tile_X0Y0_FrameData_O[27]
*210 Tile_X0Y0_FrameData_O[28]
*211 Tile_X0Y0_FrameData_O[29]
*212 Tile_X0Y0_FrameData_O[2]
*213 Tile_X0Y0_FrameData_O[30]
*214 Tile_X0Y0_FrameData_O[31]
*215 Tile_X0Y0_FrameData_O[3]
*216 Tile_X0Y0_FrameData_O[4]
*217 Tile_X0Y0_FrameData_O[5]
*218 Tile_X0Y0_FrameData_O[6]
*219 Tile_X0Y0_FrameData_O[7]
*220 Tile_X0Y0_FrameData_O[8]
*221 Tile_X0Y0_FrameData_O[9]
*222 Tile_X0Y0_FrameStrobe_O[0]
*223 Tile_X0Y0_FrameStrobe_O[10]
*224 Tile_X0Y0_FrameStrobe_O[11]
*225 Tile_X0Y0_FrameStrobe_O[12]
*226 Tile_X0Y0_FrameStrobe_O[13]
*227 Tile_X0Y0_FrameStrobe_O[14]
*228 Tile_X0Y0_FrameStrobe_O[15]
*229 Tile_X0Y0_FrameStrobe_O[16]
*230 Tile_X0Y0_FrameStrobe_O[17]
*231 Tile_X0Y0_FrameStrobe_O[18]
*232 Tile_X0Y0_FrameStrobe_O[19]
*233 Tile_X0Y0_FrameStrobe_O[1]
*234 Tile_X0Y0_FrameStrobe_O[2]
*235 Tile_X0Y0_FrameStrobe_O[3]
*236 Tile_X0Y0_FrameStrobe_O[4]
*237 Tile_X0Y0_FrameStrobe_O[5]
*238 Tile_X0Y0_FrameStrobe_O[6]
*239 Tile_X0Y0_FrameStrobe_O[7]
*240 Tile_X0Y0_FrameStrobe_O[8]
*241 Tile_X0Y0_FrameStrobe_O[9]
*242 Tile_X0Y0_N1BEG[0]
*243 Tile_X0Y0_N1BEG[1]
*244 Tile_X0Y0_N1BEG[2]
*245 Tile_X0Y0_N1BEG[3]
*246 Tile_X0Y0_N2BEG[0]
*247 Tile_X0Y0_N2BEG[1]
*248 Tile_X0Y0_N2BEG[2]
*249 Tile_X0Y0_N2BEG[3]
*250 Tile_X0Y0_N2BEG[4]
*251 Tile_X0Y0_N2BEG[5]
*252 Tile_X0Y0_N2BEG[6]
*253 Tile_X0Y0_N2BEG[7]
*254 Tile_X0Y0_N2BEGb[0]
*255 Tile_X0Y0_N2BEGb[1]
*256 Tile_X0Y0_N2BEGb[2]
*257 Tile_X0Y0_N2BEGb[3]
*258 Tile_X0Y0_N2BEGb[4]
*259 Tile_X0Y0_N2BEGb[5]
*260 Tile_X0Y0_N2BEGb[6]
*261 Tile_X0Y0_N2BEGb[7]
*262 Tile_X0Y0_N4BEG[0]
*263 Tile_X0Y0_N4BEG[10]
*264 Tile_X0Y0_N4BEG[11]
*265 Tile_X0Y0_N4BEG[12]
*266 Tile_X0Y0_N4BEG[13]
*267 Tile_X0Y0_N4BEG[14]
*268 Tile_X0Y0_N4BEG[15]
*269 Tile_X0Y0_N4BEG[1]
*270 Tile_X0Y0_N4BEG[2]
*271 Tile_X0Y0_N4BEG[3]
*272 Tile_X0Y0_N4BEG[4]
*273 Tile_X0Y0_N4BEG[5]
*274 Tile_X0Y0_N4BEG[6]
*275 Tile_X0Y0_N4BEG[7]
*276 Tile_X0Y0_N4BEG[8]
*277 Tile_X0Y0_N4BEG[9]
*278 Tile_X0Y0_S1END[0]
*279 Tile_X0Y0_S1END[1]
*280 Tile_X0Y0_S1END[2]
*281 Tile_X0Y0_S1END[3]
*282 Tile_X0Y0_S2END[0]
*283 Tile_X0Y0_S2END[1]
*284 Tile_X0Y0_S2END[2]
*285 Tile_X0Y0_S2END[3]
*286 Tile_X0Y0_S2END[4]
*287 Tile_X0Y0_S2END[5]
*288 Tile_X0Y0_S2END[6]
*289 Tile_X0Y0_S2END[7]
*290 Tile_X0Y0_S2MID[0]
*291 Tile_X0Y0_S2MID[1]
*292 Tile_X0Y0_S2MID[2]
*293 Tile_X0Y0_S2MID[3]
*294 Tile_X0Y0_S2MID[4]
*295 Tile_X0Y0_S2MID[5]
*296 Tile_X0Y0_S2MID[6]
*297 Tile_X0Y0_S2MID[7]
*298 Tile_X0Y0_S4END[0]
*299 Tile_X0Y0_S4END[10]
*300 Tile_X0Y0_S4END[11]
*301 Tile_X0Y0_S4END[12]
*302 Tile_X0Y0_S4END[13]
*303 Tile_X0Y0_S4END[14]
*304 Tile_X0Y0_S4END[15]
*305 Tile_X0Y0_S4END[1]
*306 Tile_X0Y0_S4END[2]
*307 Tile_X0Y0_S4END[3]
*308 Tile_X0Y0_S4END[4]
*309 Tile_X0Y0_S4END[5]
*310 Tile_X0Y0_S4END[6]
*311 Tile_X0Y0_S4END[7]
*312 Tile_X0Y0_S4END[8]
*313 Tile_X0Y0_S4END[9]
*314 Tile_X0Y0_UserCLKo
*315 Tile_X0Y0_W1BEG[0]
*316 Tile_X0Y0_W1BEG[1]
*317 Tile_X0Y0_W1BEG[2]
*318 Tile_X0Y0_W1BEG[3]
*319 Tile_X0Y0_W2BEG[0]
*320 Tile_X0Y0_W2BEG[1]
*321 Tile_X0Y0_W2BEG[2]
*322 Tile_X0Y0_W2BEG[3]
*323 Tile_X0Y0_W2BEG[4]
*324 Tile_X0Y0_W2BEG[5]
*325 Tile_X0Y0_W2BEG[6]
*326 Tile_X0Y0_W2BEG[7]
*327 Tile_X0Y0_W2BEGb[0]
*328 Tile_X0Y0_W2BEGb[1]
*329 Tile_X0Y0_W2BEGb[2]
*330 Tile_X0Y0_W2BEGb[3]
*331 Tile_X0Y0_W2BEGb[4]
*332 Tile_X0Y0_W2BEGb[5]
*333 Tile_X0Y0_W2BEGb[6]
*334 Tile_X0Y0_W2BEGb[7]
*335 Tile_X0Y0_W6BEG[0]
*336 Tile_X0Y0_W6BEG[10]
*337 Tile_X0Y0_W6BEG[11]
*338 Tile_X0Y0_W6BEG[1]
*339 Tile_X0Y0_W6BEG[2]
*340 Tile_X0Y0_W6BEG[3]
*341 Tile_X0Y0_W6BEG[4]
*342 Tile_X0Y0_W6BEG[5]
*343 Tile_X0Y0_W6BEG[6]
*344 Tile_X0Y0_W6BEG[7]
*345 Tile_X0Y0_W6BEG[8]
*346 Tile_X0Y0_W6BEG[9]
*347 Tile_X0Y0_WW4BEG[0]
*348 Tile_X0Y0_WW4BEG[10]
*349 Tile_X0Y0_WW4BEG[11]
*350 Tile_X0Y0_WW4BEG[12]
*351 Tile_X0Y0_WW4BEG[13]
*352 Tile_X0Y0_WW4BEG[14]
*353 Tile_X0Y0_WW4BEG[15]
*354 Tile_X0Y0_WW4BEG[1]
*355 Tile_X0Y0_WW4BEG[2]
*356 Tile_X0Y0_WW4BEG[3]
*357 Tile_X0Y0_WW4BEG[4]
*358 Tile_X0Y0_WW4BEG[5]
*359 Tile_X0Y0_WW4BEG[6]
*360 Tile_X0Y0_WW4BEG[7]
*361 Tile_X0Y0_WW4BEG[8]
*362 Tile_X0Y0_WW4BEG[9]
*363 Tile_X0Y1_E1END[0]
*364 Tile_X0Y1_E1END[1]
*365 Tile_X0Y1_E1END[2]
*366 Tile_X0Y1_E1END[3]
*367 Tile_X0Y1_E2END[0]
*368 Tile_X0Y1_E2END[1]
*369 Tile_X0Y1_E2END[2]
*370 Tile_X0Y1_E2END[3]
*371 Tile_X0Y1_E2END[4]
*372 Tile_X0Y1_E2END[5]
*373 Tile_X0Y1_E2END[6]
*374 Tile_X0Y1_E2END[7]
*375 Tile_X0Y1_E2MID[0]
*376 Tile_X0Y1_E2MID[1]
*377 Tile_X0Y1_E2MID[2]
*378 Tile_X0Y1_E2MID[3]
*379 Tile_X0Y1_E2MID[4]
*380 Tile_X0Y1_E2MID[5]
*381 Tile_X0Y1_E2MID[6]
*382 Tile_X0Y1_E2MID[7]
*383 Tile_X0Y1_E6END[0]
*384 Tile_X0Y1_E6END[10]
*385 Tile_X0Y1_E6END[11]
*386 Tile_X0Y1_E6END[1]
*387 Tile_X0Y1_E6END[2]
*388 Tile_X0Y1_E6END[3]
*389 Tile_X0Y1_E6END[4]
*390 Tile_X0Y1_E6END[5]
*391 Tile_X0Y1_E6END[6]
*392 Tile_X0Y1_E6END[7]
*393 Tile_X0Y1_E6END[8]
*394 Tile_X0Y1_E6END[9]
*395 Tile_X0Y1_EE4END[0]
*396 Tile_X0Y1_EE4END[10]
*397 Tile_X0Y1_EE4END[11]
*398 Tile_X0Y1_EE4END[12]
*399 Tile_X0Y1_EE4END[13]
*400 Tile_X0Y1_EE4END[14]
*401 Tile_X0Y1_EE4END[15]
*402 Tile_X0Y1_EE4END[1]
*403 Tile_X0Y1_EE4END[2]
*404 Tile_X0Y1_EE4END[3]
*405 Tile_X0Y1_EE4END[4]
*406 Tile_X0Y1_EE4END[5]
*407 Tile_X0Y1_EE4END[6]
*408 Tile_X0Y1_EE4END[7]
*409 Tile_X0Y1_EE4END[8]
*410 Tile_X0Y1_EE4END[9]
*411 Tile_X0Y1_FrameData[0]
*412 Tile_X0Y1_FrameData[10]
*413 Tile_X0Y1_FrameData[11]
*414 Tile_X0Y1_FrameData[12]
*415 Tile_X0Y1_FrameData[13]
*416 Tile_X0Y1_FrameData[14]
*417 Tile_X0Y1_FrameData[15]
*418 Tile_X0Y1_FrameData[16]
*419 Tile_X0Y1_FrameData[17]
*420 Tile_X0Y1_FrameData[18]
*421 Tile_X0Y1_FrameData[19]
*422 Tile_X0Y1_FrameData[1]
*423 Tile_X0Y1_FrameData[20]
*424 Tile_X0Y1_FrameData[21]
*425 Tile_X0Y1_FrameData[22]
*426 Tile_X0Y1_FrameData[23]
*427 Tile_X0Y1_FrameData[24]
*428 Tile_X0Y1_FrameData[25]
*429 Tile_X0Y1_FrameData[26]
*430 Tile_X0Y1_FrameData[27]
*431 Tile_X0Y1_FrameData[28]
*432 Tile_X0Y1_FrameData[29]
*433 Tile_X0Y1_FrameData[2]
*434 Tile_X0Y1_FrameData[30]
*435 Tile_X0Y1_FrameData[31]
*436 Tile_X0Y1_FrameData[3]
*437 Tile_X0Y1_FrameData[4]
*438 Tile_X0Y1_FrameData[5]
*439 Tile_X0Y1_FrameData[6]
*440 Tile_X0Y1_FrameData[7]
*441 Tile_X0Y1_FrameData[8]
*442 Tile_X0Y1_FrameData[9]
*443 Tile_X0Y1_FrameData_O[0]
*444 Tile_X0Y1_FrameData_O[10]
*445 Tile_X0Y1_FrameData_O[11]
*446 Tile_X0Y1_FrameData_O[12]
*447 Tile_X0Y1_FrameData_O[13]
*448 Tile_X0Y1_FrameData_O[14]
*449 Tile_X0Y1_FrameData_O[15]
*450 Tile_X0Y1_FrameData_O[16]
*451 Tile_X0Y1_FrameData_O[17]
*452 Tile_X0Y1_FrameData_O[18]
*453 Tile_X0Y1_FrameData_O[19]
*454 Tile_X0Y1_FrameData_O[1]
*455 Tile_X0Y1_FrameData_O[20]
*456 Tile_X0Y1_FrameData_O[21]
*457 Tile_X0Y1_FrameData_O[22]
*458 Tile_X0Y1_FrameData_O[23]
*459 Tile_X0Y1_FrameData_O[24]
*460 Tile_X0Y1_FrameData_O[25]
*461 Tile_X0Y1_FrameData_O[26]
*462 Tile_X0Y1_FrameData_O[27]
*463 Tile_X0Y1_FrameData_O[28]
*464 Tile_X0Y1_FrameData_O[29]
*465 Tile_X0Y1_FrameData_O[2]
*466 Tile_X0Y1_FrameData_O[30]
*467 Tile_X0Y1_FrameData_O[31]
*468 Tile_X0Y1_FrameData_O[3]
*469 Tile_X0Y1_FrameData_O[4]
*470 Tile_X0Y1_FrameData_O[5]
*471 Tile_X0Y1_FrameData_O[6]
*472 Tile_X0Y1_FrameData_O[7]
*473 Tile_X0Y1_FrameData_O[8]
*474 Tile_X0Y1_FrameData_O[9]
*475 Tile_X0Y1_FrameStrobe[0]
*476 Tile_X0Y1_FrameStrobe[10]
*477 Tile_X0Y1_FrameStrobe[11]
*478 Tile_X0Y1_FrameStrobe[12]
*479 Tile_X0Y1_FrameStrobe[13]
*480 Tile_X0Y1_FrameStrobe[14]
*481 Tile_X0Y1_FrameStrobe[15]
*482 Tile_X0Y1_FrameStrobe[16]
*483 Tile_X0Y1_FrameStrobe[17]
*484 Tile_X0Y1_FrameStrobe[18]
*485 Tile_X0Y1_FrameStrobe[19]
*486 Tile_X0Y1_FrameStrobe[1]
*487 Tile_X0Y1_FrameStrobe[2]
*488 Tile_X0Y1_FrameStrobe[3]
*489 Tile_X0Y1_FrameStrobe[4]
*490 Tile_X0Y1_FrameStrobe[5]
*491 Tile_X0Y1_FrameStrobe[6]
*492 Tile_X0Y1_FrameStrobe[7]
*493 Tile_X0Y1_FrameStrobe[8]
*494 Tile_X0Y1_FrameStrobe[9]
*495 Tile_X0Y1_N1END[0]
*496 Tile_X0Y1_N1END[1]
*497 Tile_X0Y1_N1END[2]
*498 Tile_X0Y1_N1END[3]
*499 Tile_X0Y1_N2END[0]
*500 Tile_X0Y1_N2END[1]
*501 Tile_X0Y1_N2END[2]
*502 Tile_X0Y1_N2END[3]
*503 Tile_X0Y1_N2END[4]
*504 Tile_X0Y1_N2END[5]
*505 Tile_X0Y1_N2END[6]
*506 Tile_X0Y1_N2END[7]
*507 Tile_X0Y1_N2MID[0]
*508 Tile_X0Y1_N2MID[1]
*509 Tile_X0Y1_N2MID[2]
*510 Tile_X0Y1_N2MID[3]
*511 Tile_X0Y1_N2MID[4]
*512 Tile_X0Y1_N2MID[5]
*513 Tile_X0Y1_N2MID[6]
*514 Tile_X0Y1_N2MID[7]
*515 Tile_X0Y1_N4END[0]
*516 Tile_X0Y1_N4END[10]
*517 Tile_X0Y1_N4END[11]
*518 Tile_X0Y1_N4END[12]
*519 Tile_X0Y1_N4END[13]
*520 Tile_X0Y1_N4END[14]
*521 Tile_X0Y1_N4END[15]
*522 Tile_X0Y1_N4END[1]
*523 Tile_X0Y1_N4END[2]
*524 Tile_X0Y1_N4END[3]
*525 Tile_X0Y1_N4END[4]
*526 Tile_X0Y1_N4END[5]
*527 Tile_X0Y1_N4END[6]
*528 Tile_X0Y1_N4END[7]
*529 Tile_X0Y1_N4END[8]
*530 Tile_X0Y1_N4END[9]
*531 Tile_X0Y1_S1BEG[0]
*532 Tile_X0Y1_S1BEG[1]
*533 Tile_X0Y1_S1BEG[2]
*534 Tile_X0Y1_S1BEG[3]
*535 Tile_X0Y1_S2BEG[0]
*536 Tile_X0Y1_S2BEG[1]
*537 Tile_X0Y1_S2BEG[2]
*538 Tile_X0Y1_S2BEG[3]
*539 Tile_X0Y1_S2BEG[4]
*540 Tile_X0Y1_S2BEG[5]
*541 Tile_X0Y1_S2BEG[6]
*542 Tile_X0Y1_S2BEG[7]
*543 Tile_X0Y1_S2BEGb[0]
*544 Tile_X0Y1_S2BEGb[1]
*545 Tile_X0Y1_S2BEGb[2]
*546 Tile_X0Y1_S2BEGb[3]
*547 Tile_X0Y1_S2BEGb[4]
*548 Tile_X0Y1_S2BEGb[5]
*549 Tile_X0Y1_S2BEGb[6]
*550 Tile_X0Y1_S2BEGb[7]
*551 Tile_X0Y1_S4BEG[0]
*552 Tile_X0Y1_S4BEG[10]
*553 Tile_X0Y1_S4BEG[11]
*554 Tile_X0Y1_S4BEG[12]
*555 Tile_X0Y1_S4BEG[13]
*556 Tile_X0Y1_S4BEG[14]
*557 Tile_X0Y1_S4BEG[15]
*558 Tile_X0Y1_S4BEG[1]
*559 Tile_X0Y1_S4BEG[2]
*560 Tile_X0Y1_S4BEG[3]
*561 Tile_X0Y1_S4BEG[4]
*562 Tile_X0Y1_S4BEG[5]
*563 Tile_X0Y1_S4BEG[6]
*564 Tile_X0Y1_S4BEG[7]
*565 Tile_X0Y1_S4BEG[8]
*566 Tile_X0Y1_S4BEG[9]
*567 Tile_X0Y1_UserCLK
*568 Tile_X0Y1_W1BEG[0]
*569 Tile_X0Y1_W1BEG[1]
*570 Tile_X0Y1_W1BEG[2]
*571 Tile_X0Y1_W1BEG[3]
*572 Tile_X0Y1_W2BEG[0]
*573 Tile_X0Y1_W2BEG[1]
*574 Tile_X0Y1_W2BEG[2]
*575 Tile_X0Y1_W2BEG[3]
*576 Tile_X0Y1_W2BEG[4]
*577 Tile_X0Y1_W2BEG[5]
*578 Tile_X0Y1_W2BEG[6]
*579 Tile_X0Y1_W2BEG[7]
*580 Tile_X0Y1_W2BEGb[0]
*581 Tile_X0Y1_W2BEGb[1]
*582 Tile_X0Y1_W2BEGb[2]
*583 Tile_X0Y1_W2BEGb[3]
*584 Tile_X0Y1_W2BEGb[4]
*585 Tile_X0Y1_W2BEGb[5]
*586 Tile_X0Y1_W2BEGb[6]
*587 Tile_X0Y1_W2BEGb[7]
*588 Tile_X0Y1_W6BEG[0]
*589 Tile_X0Y1_W6BEG[10]
*590 Tile_X0Y1_W6BEG[11]
*591 Tile_X0Y1_W6BEG[1]
*592 Tile_X0Y1_W6BEG[2]
*593 Tile_X0Y1_W6BEG[3]
*594 Tile_X0Y1_W6BEG[4]
*595 Tile_X0Y1_W6BEG[5]
*596 Tile_X0Y1_W6BEG[6]
*597 Tile_X0Y1_W6BEG[7]
*598 Tile_X0Y1_W6BEG[8]
*599 Tile_X0Y1_W6BEG[9]
*600 Tile_X0Y1_WW4BEG[0]
*601 Tile_X0Y1_WW4BEG[10]
*602 Tile_X0Y1_WW4BEG[11]
*603 Tile_X0Y1_WW4BEG[12]
*604 Tile_X0Y1_WW4BEG[13]
*605 Tile_X0Y1_WW4BEG[14]
*606 Tile_X0Y1_WW4BEG[15]
*607 Tile_X0Y1_WW4BEG[1]
*608 Tile_X0Y1_WW4BEG[2]
*609 Tile_X0Y1_WW4BEG[3]
*610 Tile_X0Y1_WW4BEG[4]
*611 Tile_X0Y1_WW4BEG[5]
*612 Tile_X0Y1_WW4BEG[6]
*613 Tile_X0Y1_WW4BEG[7]
*614 Tile_X0Y1_WW4BEG[8]
*615 Tile_X0Y1_WW4BEG[9]
*618 Tile_X0Y0_EF_SRAM_top\.Inst_EF_SRAM_top_ConfigMem\.Inst_frame0_bit0\.Q
*619 Tile_X0Y0_EF_SRAM_top\.Inst_EF_SRAM_top_ConfigMem\.Inst_frame0_bit1\.Q
*620 Tile_X0Y0_EF_SRAM_top\.Inst_EF_SRAM_top_ConfigMem\.Inst_frame0_bit10\.Q
*621 Tile_X0Y0_EF_SRAM_top\.Inst_EF_SRAM_top_ConfigMem\.Inst_frame0_bit11\.Q
*622 Tile_X0Y0_EF_SRAM_top\.Inst_EF_SRAM_top_ConfigMem\.Inst_frame0_bit12\.Q
*623 Tile_X0Y0_EF_SRAM_top\.Inst_EF_SRAM_top_ConfigMem\.Inst_frame0_bit13\.Q
*624 Tile_X0Y0_EF_SRAM_top\.Inst_EF_SRAM_top_ConfigMem\.Inst_frame0_bit14\.Q
*625 Tile_X0Y0_EF_SRAM_top\.Inst_EF_SRAM_top_ConfigMem\.Inst_frame0_bit15\.Q
*626 Tile_X0Y0_EF_SRAM_top\.Inst_EF_SRAM_top_ConfigMem\.Inst_frame0_bit16\.Q
*627 Tile_X0Y0_EF_SRAM_top\.Inst_EF_SRAM_top_ConfigMem\.Inst_frame0_bit17\.Q
*628 Tile_X0Y0_EF_SRAM_top\.Inst_EF_SRAM_top_ConfigMem\.Inst_frame0_bit18\.Q
*629 Tile_X0Y0_EF_SRAM_top\.Inst_EF_SRAM_top_ConfigMem\.Inst_frame0_bit19\.Q
*630 Tile_X0Y0_EF_SRAM_top\.Inst_EF_SRAM_top_ConfigMem\.Inst_frame0_bit2\.Q
*631 Tile_X0Y0_EF_SRAM_top\.Inst_EF_SRAM_top_ConfigMem\.Inst_frame0_bit20\.Q
*632 Tile_X0Y0_EF_SRAM_top\.Inst_EF_SRAM_top_ConfigMem\.Inst_frame0_bit21\.Q
*633 Tile_X0Y0_EF_SRAM_top\.Inst_EF_SRAM_top_ConfigMem\.Inst_frame0_bit22\.Q
*634 Tile_X0Y0_EF_SRAM_top\.Inst_EF_SRAM_top_ConfigMem\.Inst_frame0_bit23\.Q
*635 Tile_X0Y0_EF_SRAM_top\.Inst_EF_SRAM_top_ConfigMem\.Inst_frame0_bit24\.Q
*636 Tile_X0Y0_EF_SRAM_top\.Inst_EF_SRAM_top_ConfigMem\.Inst_frame0_bit25\.Q
*637 Tile_X0Y0_EF_SRAM_top\.Inst_EF_SRAM_top_ConfigMem\.Inst_frame0_bit26\.Q
*638 Tile_X0Y0_EF_SRAM_top\.Inst_EF_SRAM_top_ConfigMem\.Inst_frame0_bit27\.Q
*639 Tile_X0Y0_EF_SRAM_top\.Inst_EF_SRAM_top_ConfigMem\.Inst_frame0_bit28\.Q
*640 Tile_X0Y0_EF_SRAM_top\.Inst_EF_SRAM_top_ConfigMem\.Inst_frame0_bit29\.Q
*641 Tile_X0Y0_EF_SRAM_top\.Inst_EF_SRAM_top_ConfigMem\.Inst_frame0_bit3\.Q
*642 Tile_X0Y0_EF_SRAM_top\.Inst_EF_SRAM_top_ConfigMem\.Inst_frame0_bit30\.Q
*643 Tile_X0Y0_EF_SRAM_top\.Inst_EF_SRAM_top_ConfigMem\.Inst_frame0_bit31\.Q
*644 Tile_X0Y0_EF_SRAM_top\.Inst_EF_SRAM_top_ConfigMem\.Inst_frame0_bit4\.Q
*645 Tile_X0Y0_EF_SRAM_top\.Inst_EF_SRAM_top_ConfigMem\.Inst_frame0_bit5\.Q
*646 Tile_X0Y0_EF_SRAM_top\.Inst_EF_SRAM_top_ConfigMem\.Inst_frame0_bit6\.Q
*647 Tile_X0Y0_EF_SRAM_top\.Inst_EF_SRAM_top_ConfigMem\.Inst_frame0_bit7\.Q
*648 Tile_X0Y0_EF_SRAM_top\.Inst_EF_SRAM_top_ConfigMem\.Inst_frame0_bit8\.Q
*649 Tile_X0Y0_EF_SRAM_top\.Inst_EF_SRAM_top_ConfigMem\.Inst_frame0_bit9\.Q
*650 Tile_X0Y0_EF_SRAM_top\.Inst_EF_SRAM_top_ConfigMem\.Inst_frame1_bit0\.Q
*651 Tile_X0Y0_EF_SRAM_top\.Inst_EF_SRAM_top_ConfigMem\.Inst_frame1_bit1\.Q
*652 Tile_X0Y0_EF_SRAM_top\.Inst_EF_SRAM_top_ConfigMem\.Inst_frame1_bit10\.Q
*653 Tile_X0Y0_EF_SRAM_top\.Inst_EF_SRAM_top_ConfigMem\.Inst_frame1_bit11\.Q
*654 Tile_X0Y0_EF_SRAM_top\.Inst_EF_SRAM_top_ConfigMem\.Inst_frame1_bit12\.Q
*655 Tile_X0Y0_EF_SRAM_top\.Inst_EF_SRAM_top_ConfigMem\.Inst_frame1_bit13\.Q
*656 Tile_X0Y0_EF_SRAM_top\.Inst_EF_SRAM_top_ConfigMem\.Inst_frame1_bit14\.Q
*657 Tile_X0Y0_EF_SRAM_top\.Inst_EF_SRAM_top_ConfigMem\.Inst_frame1_bit15\.Q
*658 Tile_X0Y0_EF_SRAM_top\.Inst_EF_SRAM_top_ConfigMem\.Inst_frame1_bit16\.Q
*659 Tile_X0Y0_EF_SRAM_top\.Inst_EF_SRAM_top_ConfigMem\.Inst_frame1_bit17\.Q
*660 Tile_X0Y0_EF_SRAM_top\.Inst_EF_SRAM_top_ConfigMem\.Inst_frame1_bit18\.Q
*661 Tile_X0Y0_EF_SRAM_top\.Inst_EF_SRAM_top_ConfigMem\.Inst_frame1_bit19\.Q
*662 Tile_X0Y0_EF_SRAM_top\.Inst_EF_SRAM_top_ConfigMem\.Inst_frame1_bit2\.Q
*663 Tile_X0Y0_EF_SRAM_top\.Inst_EF_SRAM_top_ConfigMem\.Inst_frame1_bit20\.Q
*664 Tile_X0Y0_EF_SRAM_top\.Inst_EF_SRAM_top_ConfigMem\.Inst_frame1_bit21\.Q
*665 Tile_X0Y0_EF_SRAM_top\.Inst_EF_SRAM_top_ConfigMem\.Inst_frame1_bit22\.Q
*666 Tile_X0Y0_EF_SRAM_top\.Inst_EF_SRAM_top_ConfigMem\.Inst_frame1_bit23\.Q
*667 Tile_X0Y0_EF_SRAM_top\.Inst_EF_SRAM_top_ConfigMem\.Inst_frame1_bit24\.Q
*668 Tile_X0Y0_EF_SRAM_top\.Inst_EF_SRAM_top_ConfigMem\.Inst_frame1_bit25\.Q
*669 Tile_X0Y0_EF_SRAM_top\.Inst_EF_SRAM_top_ConfigMem\.Inst_frame1_bit26\.Q
*670 Tile_X0Y0_EF_SRAM_top\.Inst_EF_SRAM_top_ConfigMem\.Inst_frame1_bit27\.Q
*671 Tile_X0Y0_EF_SRAM_top\.Inst_EF_SRAM_top_ConfigMem\.Inst_frame1_bit28\.Q
*672 Tile_X0Y0_EF_SRAM_top\.Inst_EF_SRAM_top_ConfigMem\.Inst_frame1_bit29\.Q
*673 Tile_X0Y0_EF_SRAM_top\.Inst_EF_SRAM_top_ConfigMem\.Inst_frame1_bit3\.Q
*674 Tile_X0Y0_EF_SRAM_top\.Inst_EF_SRAM_top_ConfigMem\.Inst_frame1_bit30\.Q
*675 Tile_X0Y0_EF_SRAM_top\.Inst_EF_SRAM_top_ConfigMem\.Inst_frame1_bit31\.Q
*676 Tile_X0Y0_EF_SRAM_top\.Inst_EF_SRAM_top_ConfigMem\.Inst_frame1_bit4\.Q
*677 Tile_X0Y0_EF_SRAM_top\.Inst_EF_SRAM_top_ConfigMem\.Inst_frame1_bit5\.Q
*678 Tile_X0Y0_EF_SRAM_top\.Inst_EF_SRAM_top_ConfigMem\.Inst_frame1_bit6\.Q
*679 Tile_X0Y0_EF_SRAM_top\.Inst_EF_SRAM_top_ConfigMem\.Inst_frame1_bit7\.Q
*680 Tile_X0Y0_EF_SRAM_top\.Inst_EF_SRAM_top_ConfigMem\.Inst_frame1_bit8\.Q
*681 Tile_X0Y0_EF_SRAM_top\.Inst_EF_SRAM_top_ConfigMem\.Inst_frame1_bit9\.Q
*682 Tile_X0Y0_EF_SRAM_top\.Inst_EF_SRAM_top_ConfigMem\.Inst_frame2_bit0\.Q
*683 Tile_X0Y0_EF_SRAM_top\.Inst_EF_SRAM_top_ConfigMem\.Inst_frame2_bit1\.Q
*684 Tile_X0Y0_EF_SRAM_top\.Inst_EF_SRAM_top_ConfigMem\.Inst_frame2_bit10\.Q
*685 Tile_X0Y0_EF_SRAM_top\.Inst_EF_SRAM_top_ConfigMem\.Inst_frame2_bit11\.Q
*686 Tile_X0Y0_EF_SRAM_top\.Inst_EF_SRAM_top_ConfigMem\.Inst_frame2_bit12\.Q
*687 Tile_X0Y0_EF_SRAM_top\.Inst_EF_SRAM_top_ConfigMem\.Inst_frame2_bit13\.Q
*688 Tile_X0Y0_EF_SRAM_top\.Inst_EF_SRAM_top_ConfigMem\.Inst_frame2_bit14\.Q
*689 Tile_X0Y0_EF_SRAM_top\.Inst_EF_SRAM_top_ConfigMem\.Inst_frame2_bit15\.Q
*690 Tile_X0Y0_EF_SRAM_top\.Inst_EF_SRAM_top_ConfigMem\.Inst_frame2_bit16\.Q
*691 Tile_X0Y0_EF_SRAM_top\.Inst_EF_SRAM_top_ConfigMem\.Inst_frame2_bit17\.Q
*692 Tile_X0Y0_EF_SRAM_top\.Inst_EF_SRAM_top_ConfigMem\.Inst_frame2_bit18\.Q
*693 Tile_X0Y0_EF_SRAM_top\.Inst_EF_SRAM_top_ConfigMem\.Inst_frame2_bit19\.Q
*694 Tile_X0Y0_EF_SRAM_top\.Inst_EF_SRAM_top_ConfigMem\.Inst_frame2_bit2\.Q
*695 Tile_X0Y0_EF_SRAM_top\.Inst_EF_SRAM_top_ConfigMem\.Inst_frame2_bit20\.Q
*696 Tile_X0Y0_EF_SRAM_top\.Inst_EF_SRAM_top_ConfigMem\.Inst_frame2_bit21\.Q
*697 Tile_X0Y0_EF_SRAM_top\.Inst_EF_SRAM_top_ConfigMem\.Inst_frame2_bit22\.Q
*698 Tile_X0Y0_EF_SRAM_top\.Inst_EF_SRAM_top_ConfigMem\.Inst_frame2_bit23\.Q
*699 Tile_X0Y0_EF_SRAM_top\.Inst_EF_SRAM_top_ConfigMem\.Inst_frame2_bit24\.Q
*700 Tile_X0Y0_EF_SRAM_top\.Inst_EF_SRAM_top_ConfigMem\.Inst_frame2_bit25\.Q
*701 Tile_X0Y0_EF_SRAM_top\.Inst_EF_SRAM_top_ConfigMem\.Inst_frame2_bit26\.Q
*702 Tile_X0Y0_EF_SRAM_top\.Inst_EF_SRAM_top_ConfigMem\.Inst_frame2_bit27\.Q
*703 Tile_X0Y0_EF_SRAM_top\.Inst_EF_SRAM_top_ConfigMem\.Inst_frame2_bit28\.Q
*704 Tile_X0Y0_EF_SRAM_top\.Inst_EF_SRAM_top_ConfigMem\.Inst_frame2_bit29\.Q
*705 Tile_X0Y0_EF_SRAM_top\.Inst_EF_SRAM_top_ConfigMem\.Inst_frame2_bit3\.Q
*706 Tile_X0Y0_EF_SRAM_top\.Inst_EF_SRAM_top_ConfigMem\.Inst_frame2_bit30\.Q
*707 Tile_X0Y0_EF_SRAM_top\.Inst_EF_SRAM_top_ConfigMem\.Inst_frame2_bit31\.Q
*708 Tile_X0Y0_EF_SRAM_top\.Inst_EF_SRAM_top_ConfigMem\.Inst_frame2_bit4\.Q
*709 Tile_X0Y0_EF_SRAM_top\.Inst_EF_SRAM_top_ConfigMem\.Inst_frame2_bit5\.Q
*710 Tile_X0Y0_EF_SRAM_top\.Inst_EF_SRAM_top_ConfigMem\.Inst_frame2_bit6\.Q
*711 Tile_X0Y0_EF_SRAM_top\.Inst_EF_SRAM_top_ConfigMem\.Inst_frame2_bit7\.Q
*712 Tile_X0Y0_EF_SRAM_top\.Inst_EF_SRAM_top_ConfigMem\.Inst_frame2_bit8\.Q
*713 Tile_X0Y0_EF_SRAM_top\.Inst_EF_SRAM_top_ConfigMem\.Inst_frame2_bit9\.Q
*714 Tile_X0Y0_EF_SRAM_top\.Inst_EF_SRAM_top_ConfigMem\.Inst_frame3_bit0\.Q
*715 Tile_X0Y0_EF_SRAM_top\.Inst_EF_SRAM_top_ConfigMem\.Inst_frame3_bit1\.Q
*716 Tile_X0Y0_EF_SRAM_top\.Inst_EF_SRAM_top_ConfigMem\.Inst_frame3_bit10\.Q
*717 Tile_X0Y0_EF_SRAM_top\.Inst_EF_SRAM_top_ConfigMem\.Inst_frame3_bit11\.Q
*718 Tile_X0Y0_EF_SRAM_top\.Inst_EF_SRAM_top_ConfigMem\.Inst_frame3_bit12\.Q
*719 Tile_X0Y0_EF_SRAM_top\.Inst_EF_SRAM_top_ConfigMem\.Inst_frame3_bit13\.Q
*720 Tile_X0Y0_EF_SRAM_top\.Inst_EF_SRAM_top_ConfigMem\.Inst_frame3_bit14\.Q
*721 Tile_X0Y0_EF_SRAM_top\.Inst_EF_SRAM_top_ConfigMem\.Inst_frame3_bit15\.Q
*722 Tile_X0Y0_EF_SRAM_top\.Inst_EF_SRAM_top_ConfigMem\.Inst_frame3_bit16\.Q
*723 Tile_X0Y0_EF_SRAM_top\.Inst_EF_SRAM_top_ConfigMem\.Inst_frame3_bit17\.Q
*724 Tile_X0Y0_EF_SRAM_top\.Inst_EF_SRAM_top_ConfigMem\.Inst_frame3_bit18\.Q
*725 Tile_X0Y0_EF_SRAM_top\.Inst_EF_SRAM_top_ConfigMem\.Inst_frame3_bit19\.Q
*726 Tile_X0Y0_EF_SRAM_top\.Inst_EF_SRAM_top_ConfigMem\.Inst_frame3_bit2\.Q
*727 Tile_X0Y0_EF_SRAM_top\.Inst_EF_SRAM_top_ConfigMem\.Inst_frame3_bit20\.Q
*728 Tile_X0Y0_EF_SRAM_top\.Inst_EF_SRAM_top_ConfigMem\.Inst_frame3_bit21\.Q
*729 Tile_X0Y0_EF_SRAM_top\.Inst_EF_SRAM_top_ConfigMem\.Inst_frame3_bit22\.Q
*730 Tile_X0Y0_EF_SRAM_top\.Inst_EF_SRAM_top_ConfigMem\.Inst_frame3_bit23\.Q
*731 Tile_X0Y0_EF_SRAM_top\.Inst_EF_SRAM_top_ConfigMem\.Inst_frame3_bit24\.Q
*732 Tile_X0Y0_EF_SRAM_top\.Inst_EF_SRAM_top_ConfigMem\.Inst_frame3_bit25\.Q
*733 Tile_X0Y0_EF_SRAM_top\.Inst_EF_SRAM_top_ConfigMem\.Inst_frame3_bit26\.Q
*734 Tile_X0Y0_EF_SRAM_top\.Inst_EF_SRAM_top_ConfigMem\.Inst_frame3_bit27\.Q
*735 Tile_X0Y0_EF_SRAM_top\.Inst_EF_SRAM_top_ConfigMem\.Inst_frame3_bit28\.Q
*736 Tile_X0Y0_EF_SRAM_top\.Inst_EF_SRAM_top_ConfigMem\.Inst_frame3_bit29\.Q
*737 Tile_X0Y0_EF_SRAM_top\.Inst_EF_SRAM_top_ConfigMem\.Inst_frame3_bit3\.Q
*738 Tile_X0Y0_EF_SRAM_top\.Inst_EF_SRAM_top_ConfigMem\.Inst_frame3_bit30\.Q
*739 Tile_X0Y0_EF_SRAM_top\.Inst_EF_SRAM_top_ConfigMem\.Inst_frame3_bit31\.Q
*740 Tile_X0Y0_EF_SRAM_top\.Inst_EF_SRAM_top_ConfigMem\.Inst_frame3_bit4\.Q
*741 Tile_X0Y0_EF_SRAM_top\.Inst_EF_SRAM_top_ConfigMem\.Inst_frame3_bit5\.Q
*742 Tile_X0Y0_EF_SRAM_top\.Inst_EF_SRAM_top_ConfigMem\.Inst_frame3_bit6\.Q
*743 Tile_X0Y0_EF_SRAM_top\.Inst_EF_SRAM_top_ConfigMem\.Inst_frame3_bit7\.Q
*744 Tile_X0Y0_EF_SRAM_top\.Inst_EF_SRAM_top_ConfigMem\.Inst_frame3_bit8\.Q
*745 Tile_X0Y0_EF_SRAM_top\.Inst_EF_SRAM_top_ConfigMem\.Inst_frame3_bit9\.Q
*746 Tile_X0Y0_EF_SRAM_top\.Inst_EF_SRAM_top_ConfigMem\.Inst_frame4_bit0\.Q
*747 Tile_X0Y0_EF_SRAM_top\.Inst_EF_SRAM_top_ConfigMem\.Inst_frame4_bit1\.Q
*748 Tile_X0Y0_EF_SRAM_top\.Inst_EF_SRAM_top_ConfigMem\.Inst_frame4_bit10\.Q
*749 Tile_X0Y0_EF_SRAM_top\.Inst_EF_SRAM_top_ConfigMem\.Inst_frame4_bit11\.Q
*750 Tile_X0Y0_EF_SRAM_top\.Inst_EF_SRAM_top_ConfigMem\.Inst_frame4_bit12\.Q
*751 Tile_X0Y0_EF_SRAM_top\.Inst_EF_SRAM_top_ConfigMem\.Inst_frame4_bit13\.Q
*752 Tile_X0Y0_EF_SRAM_top\.Inst_EF_SRAM_top_ConfigMem\.Inst_frame4_bit14\.Q
*753 Tile_X0Y0_EF_SRAM_top\.Inst_EF_SRAM_top_ConfigMem\.Inst_frame4_bit15\.Q
*754 Tile_X0Y0_EF_SRAM_top\.Inst_EF_SRAM_top_ConfigMem\.Inst_frame4_bit16\.Q
*755 Tile_X0Y0_EF_SRAM_top\.Inst_EF_SRAM_top_ConfigMem\.Inst_frame4_bit17\.Q
*756 Tile_X0Y0_EF_SRAM_top\.Inst_EF_SRAM_top_ConfigMem\.Inst_frame4_bit18\.Q
*757 Tile_X0Y0_EF_SRAM_top\.Inst_EF_SRAM_top_ConfigMem\.Inst_frame4_bit19\.Q
*758 Tile_X0Y0_EF_SRAM_top\.Inst_EF_SRAM_top_ConfigMem\.Inst_frame4_bit2\.Q
*759 Tile_X0Y0_EF_SRAM_top\.Inst_EF_SRAM_top_ConfigMem\.Inst_frame4_bit20\.Q
*760 Tile_X0Y0_EF_SRAM_top\.Inst_EF_SRAM_top_ConfigMem\.Inst_frame4_bit21\.Q
*761 Tile_X0Y0_EF_SRAM_top\.Inst_EF_SRAM_top_ConfigMem\.Inst_frame4_bit22\.Q
*762 Tile_X0Y0_EF_SRAM_top\.Inst_EF_SRAM_top_ConfigMem\.Inst_frame4_bit23\.Q
*763 Tile_X0Y0_EF_SRAM_top\.Inst_EF_SRAM_top_ConfigMem\.Inst_frame4_bit24\.Q
*764 Tile_X0Y0_EF_SRAM_top\.Inst_EF_SRAM_top_ConfigMem\.Inst_frame4_bit25\.Q
*765 Tile_X0Y0_EF_SRAM_top\.Inst_EF_SRAM_top_ConfigMem\.Inst_frame4_bit26\.Q
*766 Tile_X0Y0_EF_SRAM_top\.Inst_EF_SRAM_top_ConfigMem\.Inst_frame4_bit27\.Q
*767 Tile_X0Y0_EF_SRAM_top\.Inst_EF_SRAM_top_ConfigMem\.Inst_frame4_bit28\.Q
*768 Tile_X0Y0_EF_SRAM_top\.Inst_EF_SRAM_top_ConfigMem\.Inst_frame4_bit29\.Q
*769 Tile_X0Y0_EF_SRAM_top\.Inst_EF_SRAM_top_ConfigMem\.Inst_frame4_bit3\.Q
*770 Tile_X0Y0_EF_SRAM_top\.Inst_EF_SRAM_top_ConfigMem\.Inst_frame4_bit30\.Q
*771 Tile_X0Y0_EF_SRAM_top\.Inst_EF_SRAM_top_ConfigMem\.Inst_frame4_bit31\.Q
*772 Tile_X0Y0_EF_SRAM_top\.Inst_EF_SRAM_top_ConfigMem\.Inst_frame4_bit4\.Q
*773 Tile_X0Y0_EF_SRAM_top\.Inst_EF_SRAM_top_ConfigMem\.Inst_frame4_bit5\.Q
*774 Tile_X0Y0_EF_SRAM_top\.Inst_EF_SRAM_top_ConfigMem\.Inst_frame4_bit6\.Q
*775 Tile_X0Y0_EF_SRAM_top\.Inst_EF_SRAM_top_ConfigMem\.Inst_frame4_bit7\.Q
*776 Tile_X0Y0_EF_SRAM_top\.Inst_EF_SRAM_top_ConfigMem\.Inst_frame4_bit8\.Q
*777 Tile_X0Y0_EF_SRAM_top\.Inst_EF_SRAM_top_ConfigMem\.Inst_frame4_bit9\.Q
*778 Tile_X0Y0_EF_SRAM_top\.Inst_EF_SRAM_top_ConfigMem\.Inst_frame5_bit0\.Q
*779 Tile_X0Y0_EF_SRAM_top\.Inst_EF_SRAM_top_ConfigMem\.Inst_frame5_bit1\.Q
*780 Tile_X0Y0_EF_SRAM_top\.Inst_EF_SRAM_top_ConfigMem\.Inst_frame5_bit10\.Q
*781 Tile_X0Y0_EF_SRAM_top\.Inst_EF_SRAM_top_ConfigMem\.Inst_frame5_bit11\.Q
*782 Tile_X0Y0_EF_SRAM_top\.Inst_EF_SRAM_top_ConfigMem\.Inst_frame5_bit12\.Q
*783 Tile_X0Y0_EF_SRAM_top\.Inst_EF_SRAM_top_ConfigMem\.Inst_frame5_bit13\.Q
*784 Tile_X0Y0_EF_SRAM_top\.Inst_EF_SRAM_top_ConfigMem\.Inst_frame5_bit14\.Q
*785 Tile_X0Y0_EF_SRAM_top\.Inst_EF_SRAM_top_ConfigMem\.Inst_frame5_bit15\.Q
*786 Tile_X0Y0_EF_SRAM_top\.Inst_EF_SRAM_top_ConfigMem\.Inst_frame5_bit16\.Q
*787 Tile_X0Y0_EF_SRAM_top\.Inst_EF_SRAM_top_ConfigMem\.Inst_frame5_bit17\.Q
*788 Tile_X0Y0_EF_SRAM_top\.Inst_EF_SRAM_top_ConfigMem\.Inst_frame5_bit18\.Q
*789 Tile_X0Y0_EF_SRAM_top\.Inst_EF_SRAM_top_ConfigMem\.Inst_frame5_bit19\.Q
*790 Tile_X0Y0_EF_SRAM_top\.Inst_EF_SRAM_top_ConfigMem\.Inst_frame5_bit2\.Q
*791 Tile_X0Y0_EF_SRAM_top\.Inst_EF_SRAM_top_ConfigMem\.Inst_frame5_bit20\.Q
*792 Tile_X0Y0_EF_SRAM_top\.Inst_EF_SRAM_top_ConfigMem\.Inst_frame5_bit21\.Q
*793 Tile_X0Y0_EF_SRAM_top\.Inst_EF_SRAM_top_ConfigMem\.Inst_frame5_bit22\.Q
*794 Tile_X0Y0_EF_SRAM_top\.Inst_EF_SRAM_top_ConfigMem\.Inst_frame5_bit23\.Q
*795 Tile_X0Y0_EF_SRAM_top\.Inst_EF_SRAM_top_ConfigMem\.Inst_frame5_bit24\.Q
*796 Tile_X0Y0_EF_SRAM_top\.Inst_EF_SRAM_top_ConfigMem\.Inst_frame5_bit25\.Q
*797 Tile_X0Y0_EF_SRAM_top\.Inst_EF_SRAM_top_ConfigMem\.Inst_frame5_bit26\.Q
*798 Tile_X0Y0_EF_SRAM_top\.Inst_EF_SRAM_top_ConfigMem\.Inst_frame5_bit27\.Q
*799 Tile_X0Y0_EF_SRAM_top\.Inst_EF_SRAM_top_ConfigMem\.Inst_frame5_bit28\.Q
*800 Tile_X0Y0_EF_SRAM_top\.Inst_EF_SRAM_top_ConfigMem\.Inst_frame5_bit29\.Q
*801 Tile_X0Y0_EF_SRAM_top\.Inst_EF_SRAM_top_ConfigMem\.Inst_frame5_bit3\.Q
*802 Tile_X0Y0_EF_SRAM_top\.Inst_EF_SRAM_top_ConfigMem\.Inst_frame5_bit30\.Q
*803 Tile_X0Y0_EF_SRAM_top\.Inst_EF_SRAM_top_ConfigMem\.Inst_frame5_bit31\.Q
*804 Tile_X0Y0_EF_SRAM_top\.Inst_EF_SRAM_top_ConfigMem\.Inst_frame5_bit4\.Q
*805 Tile_X0Y0_EF_SRAM_top\.Inst_EF_SRAM_top_ConfigMem\.Inst_frame5_bit5\.Q
*806 Tile_X0Y0_EF_SRAM_top\.Inst_EF_SRAM_top_ConfigMem\.Inst_frame5_bit6\.Q
*807 Tile_X0Y0_EF_SRAM_top\.Inst_EF_SRAM_top_ConfigMem\.Inst_frame5_bit7\.Q
*808 Tile_X0Y0_EF_SRAM_top\.Inst_EF_SRAM_top_ConfigMem\.Inst_frame5_bit8\.Q
*809 Tile_X0Y0_EF_SRAM_top\.Inst_EF_SRAM_top_ConfigMem\.Inst_frame5_bit9\.Q
*810 Tile_X0Y0_EF_SRAM_top\.Inst_EF_SRAM_top_ConfigMem\.Inst_frame6_bit0\.Q