* NGSPICE file created from S_EF_DAC8.ext - technology: sky130A

* Black-box entry subcircuit for sky130_fd_sc_hd__fill_2 abstract view
.subckt sky130_fd_sc_hd__fill_2 VGND VNB VPB VPWR
.ends

* Black-box entry subcircuit for sky130_fd_sc_hd__fill_1 abstract view
.subckt sky130_fd_sc_hd__fill_1 VGND VNB VPB VPWR
.ends

* Black-box entry subcircuit for sky130_fd_sc_hd__tapvpwrvgnd_1 abstract view
.subckt sky130_fd_sc_hd__tapvpwrvgnd_1 VGND VPWR
.ends

* Black-box entry subcircuit for sky130_fd_sc_hd__decap_3 abstract view
.subckt sky130_fd_sc_hd__decap_3 VGND VNB VPB VPWR
.ends

* Black-box entry subcircuit for sky130_fd_sc_hd__decap_6 abstract view
.subckt sky130_fd_sc_hd__decap_6 VGND VNB VPB VPWR
.ends

* Black-box entry subcircuit for sky130_fd_sc_hd__dlxtp_1 abstract view
.subckt sky130_fd_sc_hd__dlxtp_1 D GATE VGND VNB VPB VPWR Q
.ends

* Black-box entry subcircuit for sky130_fd_sc_hd__clkbuf_1 abstract view
.subckt sky130_fd_sc_hd__clkbuf_1 A VGND VNB VPB VPWR X
.ends

* Black-box entry subcircuit for sky130_fd_sc_hd__decap_4 abstract view
.subckt sky130_fd_sc_hd__decap_4 VGND VNB VPB VPWR
.ends

* Black-box entry subcircuit for sky130_fd_sc_hd__decap_8 abstract view
.subckt sky130_fd_sc_hd__decap_8 VGND VNB VPB VPWR
.ends

* Black-box entry subcircuit for sky130_ef_sc_hd__decap_12 abstract view
.subckt sky130_ef_sc_hd__decap_12 VPWR VGND VPB VNB
.ends

* Black-box entry subcircuit for sky130_fd_sc_hd__diode_2 abstract view
.subckt sky130_fd_sc_hd__diode_2 DIODE VGND VNB VPB VPWR
.ends

* Black-box entry subcircuit for sky130_fd_sc_hd__buf_2 abstract view
.subckt sky130_fd_sc_hd__buf_2 A VGND VNB VPB VPWR X
.ends

* Black-box entry subcircuit for sky130_fd_sc_hd__clkbuf_2 abstract view
.subckt sky130_fd_sc_hd__clkbuf_2 A VGND VNB VPB VPWR X
.ends

* Black-box entry subcircuit for sky130_fd_sc_hd__mux4_1 abstract view
.subckt sky130_fd_sc_hd__mux4_1 A0 A1 A2 A3 S0 S1 VGND VNB VPB VPWR X
.ends

* Black-box entry subcircuit for sky130_fd_sc_hd__mux4_2 abstract view
.subckt sky130_fd_sc_hd__mux4_2 A0 A1 A2 A3 S0 S1 VGND VNB VPB VPWR X
.ends

* Black-box entry subcircuit for sky130_fd_sc_hd__buf_1 abstract view
.subckt sky130_fd_sc_hd__buf_1 A VGND VNB VPB VPWR X
.ends

* Black-box entry subcircuit for sky130_fd_sc_hd__dlymetal6s2s_1 abstract view
.subckt sky130_fd_sc_hd__dlymetal6s2s_1 A VGND VNB VPB VPWR X
.ends

* Black-box entry subcircuit for sky130_fd_sc_hd__conb_1 abstract view
.subckt sky130_fd_sc_hd__conb_1 VGND VNB VPB VPWR HI LO
.ends

.subckt S_EF_DAC8 Co FrameData[0] FrameData[10] FrameData[11] FrameData[12] FrameData[13]
+ FrameData[14] FrameData[15] FrameData[16] FrameData[17] FrameData[18] FrameData[19]
+ FrameData[1] FrameData[20] FrameData[21] FrameData[22] FrameData[23] FrameData[24]
+ FrameData[25] FrameData[26] FrameData[27] FrameData[28] FrameData[29] FrameData[2]
+ FrameData[30] FrameData[31] FrameData[3] FrameData[4] FrameData[5] FrameData[6]
+ FrameData[7] FrameData[8] FrameData[9] FrameData_O[0] FrameData_O[10] FrameData_O[11]
+ FrameData_O[12] FrameData_O[13] FrameData_O[14] FrameData_O[15] FrameData_O[16]
+ FrameData_O[17] FrameData_O[18] FrameData_O[19] FrameData_O[1] FrameData_O[20] FrameData_O[21]
+ FrameData_O[22] FrameData_O[23] FrameData_O[24] FrameData_O[25] FrameData_O[26]
+ FrameData_O[27] FrameData_O[28] FrameData_O[29] FrameData_O[2] FrameData_O[30] FrameData_O[31]
+ FrameData_O[3] FrameData_O[4] FrameData_O[5] FrameData_O[6] FrameData_O[7] FrameData_O[8]
+ FrameData_O[9] FrameStrobe[0] FrameStrobe[10] FrameStrobe[11] FrameStrobe[12] FrameStrobe[13]
+ FrameStrobe[14] FrameStrobe[15] FrameStrobe[16] FrameStrobe[17] FrameStrobe[18]
+ FrameStrobe[19] FrameStrobe[1] FrameStrobe[2] FrameStrobe[3] FrameStrobe[4] FrameStrobe[5]
+ FrameStrobe[6] FrameStrobe[7] FrameStrobe[8] FrameStrobe[9] FrameStrobe_O[0] FrameStrobe_O[10]
+ FrameStrobe_O[11] FrameStrobe_O[12] FrameStrobe_O[13] FrameStrobe_O[14] FrameStrobe_O[15]
+ FrameStrobe_O[16] FrameStrobe_O[17] FrameStrobe_O[18] FrameStrobe_O[19] FrameStrobe_O[1]
+ FrameStrobe_O[2] FrameStrobe_O[3] FrameStrobe_O[4] FrameStrobe_O[5] FrameStrobe_O[6]
+ FrameStrobe_O[7] FrameStrobe_O[8] FrameStrobe_O[9] N1BEG[0] N1BEG[1] N1BEG[2] N1BEG[3]
+ N2BEG[0] N2BEG[1] N2BEG[2] N2BEG[3] N2BEG[4] N2BEG[5] N2BEG[6] N2BEG[7] N2BEGb[0]
+ N2BEGb[1] N2BEGb[2] N2BEGb[3] N2BEGb[4] N2BEGb[5] N2BEGb[6] N2BEGb[7] N4BEG[0] N4BEG[10]
+ N4BEG[11] N4BEG[12] N4BEG[13] N4BEG[14] N4BEG[15] N4BEG[1] N4BEG[2] N4BEG[3] N4BEG[4]
+ N4BEG[5] N4BEG[6] N4BEG[7] N4BEG[8] N4BEG[9] NN4BEG[0] NN4BEG[10] NN4BEG[11] NN4BEG[12]
+ NN4BEG[13] NN4BEG[14] NN4BEG[15] NN4BEG[1] NN4BEG[2] NN4BEG[3] NN4BEG[4] NN4BEG[5]
+ NN4BEG[6] NN4BEG[7] NN4BEG[8] NN4BEG[9] S1END[0] S1END[1] S1END[2] S1END[3] S2END[0]
+ S2END[1] S2END[2] S2END[3] S2END[4] S2END[5] S2END[6] S2END[7] S2MID[0] S2MID[1]
+ S2MID[2] S2MID[3] S2MID[4] S2MID[5] S2MID[6] S2MID[7] S4END[0] S4END[10] S4END[11]
+ S4END[12] S4END[13] S4END[14] S4END[15] S4END[1] S4END[2] S4END[3] S4END[4] S4END[5]
+ S4END[6] S4END[7] S4END[8] S4END[9] SS4END[0] SS4END[10] SS4END[11] SS4END[12] SS4END[13]
+ SS4END[14] SS4END[15] SS4END[1] SS4END[2] SS4END[3] SS4END[4] SS4END[5] SS4END[6]
+ SS4END[7] SS4END[8] SS4END[9] UserCLK UserCLKo VALUE_top0 VALUE_top1 VALUE_top2
+ VALUE_top3 VALUE_top4 VALUE_top5 VALUE_top6 VALUE_top7 VGND VPWR
XFILLER_10_306 VGND VGND VPWR VPWR sky130_fd_sc_hd__fill_2
XFILLER_10_125 VGND VGND VPWR VPWR sky130_fd_sc_hd__fill_1
XTAP_TAPCELL_ROW_8_88 VGND VPWR sky130_fd_sc_hd__tapvpwrvgnd_1
XPHY_EDGE_ROW_0_Left_12 VGND VGND VPWR VPWR sky130_fd_sc_hd__decap_3
XFILLER_2_335 VGND VGND VPWR VPWR sky130_fd_sc_hd__decap_6
XTAP_TAPCELL_ROW_11_120 VGND VPWR sky130_fd_sc_hd__tapvpwrvgnd_1
XFILLER_7_405 VGND VGND VPWR VPWR sky130_fd_sc_hd__fill_1
X_062_ net21 net15 VGND VGND VPWR VPWR Inst_S_EF_DAC8_ConfigMem.Inst_frame0_bit22.Q
+ sky130_fd_sc_hd__dlxtp_1
X_131_ Inst_S_EF_DAC8_switch_matrix.N2BEG2 VGND VGND VPWR VPWR net141 sky130_fd_sc_hd__clkbuf_1
XFILLER_9_99 VGND VGND VPWR VPWR sky130_fd_sc_hd__fill_1
XFILLER_9_55 VGND VGND VPWR VPWR sky130_fd_sc_hd__fill_1
XFILLER_0_57 VGND VGND VPWR VPWR sky130_fd_sc_hd__decap_4
XFILLER_0_35 VGND VGND VPWR VPWR sky130_fd_sc_hd__decap_8
XFILLER_0_24 VGND VGND VPWR VPWR sky130_fd_sc_hd__decap_4
X_114_ FrameStrobe[9] VGND VGND VPWR VPWR net134 sky130_fd_sc_hd__clkbuf_1
X_045_ net34 net16 VGND VGND VPWR VPWR Inst_S_EF_DAC8_ConfigMem.Inst_frame0_bit5.Q
+ sky130_fd_sc_hd__dlxtp_1
XTAP_TAPCELL_ROW_5_67 VGND VPWR sky130_fd_sc_hd__tapvpwrvgnd_1
XFILLER_6_12 VPWR VGND VPWR VGND sky130_ef_sc_hd__decap_12
X_028_ net19 net13 VGND VGND VPWR VPWR Inst_S_EF_DAC8_ConfigMem.Inst_frame1_bit20.Q
+ sky130_fd_sc_hd__dlxtp_1
XANTENNA_5 FrameStrobe[6] VGND VGND VPWR VPWR sky130_fd_sc_hd__diode_2
XFILLER_1_208 VPWR VGND VPWR VGND sky130_ef_sc_hd__decap_12
Xoutput97 net103 VGND VGND VPWR VPWR FrameData_O[28] sky130_fd_sc_hd__buf_2
XFILLER_8_385 VGND VGND VPWR VPWR sky130_fd_sc_hd__fill_2
XFILLER_8_363 VGND VGND VPWR VPWR sky130_fd_sc_hd__fill_1
Xoutput86 net92 VGND VGND VPWR VPWR FrameData_O[18] sky130_fd_sc_hd__buf_2
XTAP_TAPCELL_ROW_2_46 VGND VPWR sky130_fd_sc_hd__tapvpwrvgnd_1
XFILLER_10_318 VGND VGND VPWR VPWR sky130_fd_sc_hd__decap_3
XFILLER_10_148 VGND VGND VPWR VPWR sky130_fd_sc_hd__fill_2
XFILLER_10_115 VGND VGND VPWR VPWR sky130_fd_sc_hd__fill_2
XTAP_TAPCELL_ROW_11_121 VGND VPWR sky130_fd_sc_hd__tapvpwrvgnd_1
XTAP_TAPCELL_ROW_11_110 VGND VPWR sky130_fd_sc_hd__tapvpwrvgnd_1
XTAP_TAPCELL_ROW_8_89 VGND VPWR sky130_fd_sc_hd__tapvpwrvgnd_1
XFILLER_1_391 VGND VGND VPWR VPWR sky130_fd_sc_hd__fill_1
X_130_ Inst_S_EF_DAC8_switch_matrix.N2BEG1 VGND VGND VPWR VPWR net140 sky130_fd_sc_hd__clkbuf_2
XFILLER_9_23 VPWR VGND VPWR VGND sky130_ef_sc_hd__decap_12
X_061_ net20 net18 VGND VGND VPWR VPWR Inst_S_EF_DAC8_ConfigMem.Inst_frame0_bit21.Q
+ sky130_fd_sc_hd__dlxtp_1
XFILLER_4_409 VGND VGND VPWR VPWR sky130_fd_sc_hd__fill_1
XFILLER_11_276 VGND VGND VPWR VPWR sky130_fd_sc_hd__decap_4
XFILLER_7_258 VGND VGND VPWR VPWR sky130_fd_sc_hd__fill_1
X_044_ net33 net16 VGND VGND VPWR VPWR Inst_S_EF_DAC8_ConfigMem.Inst_frame0_bit4.Q
+ sky130_fd_sc_hd__dlxtp_1
X_113_ FrameStrobe[8] VGND VGND VPWR VPWR net133 sky130_fd_sc_hd__clkbuf_1
XTAP_TAPCELL_ROW_5_68 VGND VPWR sky130_fd_sc_hd__tapvpwrvgnd_1
XFILLER_6_24 VGND VGND VPWR VPWR sky130_fd_sc_hd__decap_4
XANTENNA_6 FrameStrobe[7] VGND VGND VPWR VPWR sky130_fd_sc_hd__diode_2
X_027_ net11 net14 VGND VGND VPWR VPWR Inst_S_EF_DAC8_ConfigMem.Inst_frame1_bit19.Q
+ sky130_fd_sc_hd__dlxtp_1
XPHY_EDGE_ROW_6_Right_6 VGND VGND VPWR VPWR sky130_fd_sc_hd__decap_3
Xoutput98 net104 VGND VGND VPWR VPWR FrameData_O[29] sky130_fd_sc_hd__buf_2
Xoutput87 net93 VGND VGND VPWR VPWR FrameData_O[19] sky130_fd_sc_hd__buf_2
XFILLER_0_253 VPWR VGND VPWR VGND sky130_ef_sc_hd__decap_12
XTAP_TAPCELL_ROW_2_47 VGND VPWR sky130_fd_sc_hd__tapvpwrvgnd_1
XFILLER_8_397 VGND VGND VPWR VPWR sky130_fd_sc_hd__fill_2
XTAP_TAPCELL_ROW_11_111 VGND VPWR sky130_fd_sc_hd__tapvpwrvgnd_1
XFILLER_9_35 VPWR VGND VPWR VGND sky130_ef_sc_hd__decap_12
XFILLER_2_123 VPWR VGND VPWR VGND sky130_ef_sc_hd__decap_12
X_060_ net19 net17 VGND VGND VPWR VPWR Inst_S_EF_DAC8_ConfigMem.Inst_frame0_bit20.Q
+ sky130_fd_sc_hd__dlxtp_1
XFILLER_9_57 VPWR VGND VPWR VGND sky130_ef_sc_hd__decap_12
XFILLER_11_222 VGND VGND VPWR VPWR sky130_fd_sc_hd__fill_2
XTAP_TAPCELL_ROW_5_69 VGND VPWR sky130_fd_sc_hd__tapvpwrvgnd_1
X_112_ FrameStrobe[7] VGND VGND VPWR VPWR net132 sky130_fd_sc_hd__clkbuf_1
X_043_ net32 net17 VGND VGND VPWR VPWR Inst_S_EF_DAC8_ConfigMem.Inst_frame0_bit3.Q
+ sky130_fd_sc_hd__dlxtp_1
XANTENNA_7 net136 VGND VGND VPWR VPWR sky130_fd_sc_hd__diode_2
X_026_ net10 net14 VGND VGND VPWR VPWR Inst_S_EF_DAC8_ConfigMem.Inst_frame1_bit18.Q
+ sky130_fd_sc_hd__dlxtp_1
XFILLER_0_265 VPWR VGND VPWR VGND sky130_ef_sc_hd__decap_12
XFILLER_0_221 VGND VGND VPWR VPWR sky130_fd_sc_hd__decap_3
Xoutput99 net105 VGND VGND VPWR VPWR FrameData_O[2] sky130_fd_sc_hd__buf_2
Xoutput88 net94 VGND VGND VPWR VPWR FrameData_O[1] sky130_fd_sc_hd__buf_2
Xoutput77 net83 VGND VGND VPWR VPWR FrameData_O[0] sky130_fd_sc_hd__buf_2
XTAP_TAPCELL_ROW_2_48 VGND VPWR sky130_fd_sc_hd__tapvpwrvgnd_1
XFILLER_8_365 VPWR VGND VPWR VGND sky130_ef_sc_hd__decap_12
XFILLER_8_321 VPWR VGND VPWR VGND sky130_ef_sc_hd__decap_12
X_009_ net44 net60 net74 net82 Inst_S_EF_DAC8_ConfigMem.Inst_frame0_bit12.Q Inst_S_EF_DAC8_ConfigMem.Inst_frame0_bit13.Q
+ VGND VGND VPWR VPWR Inst_S_EF_DAC8_switch_matrix.N2BEGb6 sky130_fd_sc_hd__mux4_1
XFILLER_9_118 VGND VGND VPWR VPWR sky130_fd_sc_hd__decap_4
XFILLER_5_335 VGND VGND VPWR VPWR sky130_fd_sc_hd__fill_1
XFILLER_10_139 VGND VGND VPWR VPWR sky130_fd_sc_hd__fill_1
XFILLER_10_106 VGND VGND VPWR VPWR sky130_fd_sc_hd__decap_4
XTAP_TAPCELL_ROW_11_112 VGND VPWR sky130_fd_sc_hd__tapvpwrvgnd_1
XFILLER_1_393 VGND VGND VPWR VPWR sky130_fd_sc_hd__decap_4
XFILLER_2_135 VGND VGND VPWR VPWR sky130_fd_sc_hd__decap_4
XFILLER_2_157 VGND VGND VPWR VPWR sky130_fd_sc_hd__fill_1
XPHY_EDGE_ROW_4_Left_16 VGND VGND VPWR VPWR sky130_fd_sc_hd__decap_3
XFILLER_9_69 VGND VGND VPWR VPWR sky130_fd_sc_hd__decap_3
XFILLER_9_47 VGND VGND VPWR VPWR sky130_fd_sc_hd__decap_8
XFILLER_11_289 VGND VGND VPWR VPWR sky130_fd_sc_hd__fill_2
X_042_ net29 net17 VGND VGND VPWR VPWR Inst_S_EF_DAC8_ConfigMem.Inst_frame0_bit2.Q
+ sky130_fd_sc_hd__dlxtp_1
X_111_ FrameStrobe[6] VGND VGND VPWR VPWR net131 sky130_fd_sc_hd__clkbuf_1
XANTENNA_8 net146 VGND VGND VPWR VPWR sky130_fd_sc_hd__diode_2
X_025_ net9 net14 VGND VGND VPWR VPWR Inst_S_EF_DAC8_ConfigMem.Inst_frame1_bit17.Q
+ sky130_fd_sc_hd__dlxtp_1
XFILLER_3_252 VPWR VGND VPWR VGND sky130_ef_sc_hd__decap_12
XFILLER_3_285 VGND VGND VPWR VPWR sky130_fd_sc_hd__fill_1
Xoutput89 net95 VGND VGND VPWR VPWR FrameData_O[20] sky130_fd_sc_hd__buf_2
XFILLER_0_277 VGND VGND VPWR VPWR sky130_fd_sc_hd__decap_3
XFILLER_0_299 VGND VGND VPWR VPWR sky130_fd_sc_hd__decap_8
XTAP_TAPCELL_ROW_2_49 VGND VPWR sky130_fd_sc_hd__tapvpwrvgnd_1
Xoutput78 net84 VGND VGND VPWR VPWR FrameData_O[10] sky130_fd_sc_hd__buf_2
XFILLER_8_377 VGND VGND VPWR VPWR sky130_fd_sc_hd__decap_8
XFILLER_8_333 VPWR VGND VPWR VGND sky130_ef_sc_hd__decap_12
X_008_ net43 net59 net67 net81 Inst_S_EF_DAC8_ConfigMem.Inst_frame0_bit14.Q Inst_S_EF_DAC8_ConfigMem.Inst_frame0_bit15.Q
+ VGND VGND VPWR VPWR Inst_S_EF_DAC8_switch_matrix.N2BEGb7 sky130_fd_sc_hd__mux4_1
XFILLER_7_91 VGND VGND VPWR VPWR sky130_fd_sc_hd__fill_1
XFILLER_3_27 VGND VGND VPWR VPWR sky130_fd_sc_hd__fill_1
XTAP_TAPCELL_ROW_11_113 VGND VPWR sky130_fd_sc_hd__tapvpwrvgnd_1
XFILLER_5_111 VGND VGND VPWR VPWR sky130_fd_sc_hd__fill_1
XFILLER_1_361 VPWR VGND VPWR VGND sky130_ef_sc_hd__decap_12
X_041_ net12 net15 VGND VGND VPWR VPWR Inst_S_EF_DAC8_ConfigMem.Inst_frame0_bit1.Q
+ sky130_fd_sc_hd__dlxtp_1
XFILLER_7_228 VPWR VGND VPWR VGND sky130_ef_sc_hd__decap_12
X_110_ FrameStrobe[5] VGND VGND VPWR VPWR net130 sky130_fd_sc_hd__clkbuf_1
XFILLER_10_290 VGND VGND VPWR VPWR sky130_fd_sc_hd__decap_6
XFILLER_6_283 VPWR VGND VPWR VGND sky130_ef_sc_hd__decap_12
XFILLER_1_60 VGND VGND VPWR VPWR sky130_fd_sc_hd__fill_1
XFILLER_4_209 VPWR VGND VPWR VGND sky130_ef_sc_hd__decap_12
XANTENNA_9 net155 VGND VGND VPWR VPWR sky130_fd_sc_hd__diode_2
X_024_ net8 net13 VGND VGND VPWR VPWR Inst_S_EF_DAC8_ConfigMem.Inst_frame1_bit16.Q
+ sky130_fd_sc_hd__dlxtp_1
XFILLER_3_264 VPWR VGND VPWR VGND sky130_ef_sc_hd__decap_12
XFILLER_8_345 VPWR VGND VPWR VGND sky130_ef_sc_hd__decap_12
X_007_ net51 net47 net59 net67 Inst_S_EF_DAC8_ConfigMem.Inst_frame0_bit16.Q Inst_S_EF_DAC8_ConfigMem.Inst_frame0_bit17.Q
+ VGND VGND VPWR VPWR net188 sky130_fd_sc_hd__mux4_2
Xoutput79 net85 VGND VGND VPWR VPWR FrameData_O[11] sky130_fd_sc_hd__buf_2
XFILLER_5_337 VPWR VGND VPWR VGND sky130_ef_sc_hd__decap_12
XFILLER_8_197 VGND VGND VPWR VPWR sky130_fd_sc_hd__fill_2
XFILLER_5_9 VPWR VGND VPWR VGND sky130_ef_sc_hd__decap_12
XTAP_TAPCELL_ROW_11_114 VGND VPWR sky130_fd_sc_hd__tapvpwrvgnd_1
XFILLER_1_373 VPWR VGND VPWR VGND sky130_ef_sc_hd__decap_12
XFILLER_5_167 VGND VGND VPWR VPWR sky130_fd_sc_hd__fill_1
XFILLER_9_16 VGND VGND VPWR VPWR sky130_fd_sc_hd__fill_1
XFILLER_0_29 VGND VGND VPWR VPWR sky130_fd_sc_hd__fill_2
X_040_ net1 net15 VGND VGND VPWR VPWR Inst_S_EF_DAC8_ConfigMem.Inst_frame0_bit0.Q
+ sky130_fd_sc_hd__dlxtp_1
X_169_ net80 VGND VGND VPWR VPWR net185 sky130_fd_sc_hd__clkbuf_1
XFILLER_6_295 VPWR VGND VPWR VGND sky130_ef_sc_hd__decap_12
XFILLER_10_70 VGND VGND VPWR VPWR sky130_fd_sc_hd__decap_8
X_023_ net58 net80 net66 net73 Inst_S_EF_DAC8_ConfigMem.Inst_frame1_bit17.Q Inst_S_EF_DAC8_ConfigMem.Inst_frame1_bit16.Q
+ VGND VGND VPWR VPWR Inst_S_EF_DAC8_switch_matrix.N2BEG0 sky130_fd_sc_hd__mux4_1
XFILLER_3_210 VPWR VGND VPWR VGND sky130_ef_sc_hd__decap_12
XFILLER_3_276 VGND VGND VPWR VPWR sky130_fd_sc_hd__decap_4
XFILLER_8_357 VGND VGND VPWR VPWR sky130_fd_sc_hd__decap_6
X_006_ net52 net48 net60 net74 Inst_S_EF_DAC8_ConfigMem.Inst_frame0_bit18.Q Inst_S_EF_DAC8_ConfigMem.Inst_frame0_bit19.Q
+ VGND VGND VPWR VPWR net189 sky130_fd_sc_hd__mux4_1
XFILLER_5_349 VPWR VGND VPWR VGND sky130_ef_sc_hd__decap_12
XFILLER_8_165 VPWR VGND VPWR VGND sky130_ef_sc_hd__decap_12
XTAP_TAPCELL_ROW_11_115 VGND VPWR sky130_fd_sc_hd__tapvpwrvgnd_1
XFILLER_1_385 VGND VGND VPWR VPWR sky130_fd_sc_hd__decap_6
XFILLER_5_113 VPWR VGND VPWR VGND sky130_ef_sc_hd__decap_12
XFILLER_4_83 VGND VGND VPWR VPWR sky130_fd_sc_hd__fill_1
XFILLER_9_293 VPWR VGND VPWR VGND sky130_ef_sc_hd__decap_12
X_168_ net81 VGND VGND VPWR VPWR net184 sky130_fd_sc_hd__buf_1
X_099_ net25 VGND VGND VPWR VPWR net101 sky130_fd_sc_hd__clkbuf_2
XFILLER_1_73 VGND VGND VPWR VPWR sky130_fd_sc_hd__fill_1
XFILLER_10_82 VGND VGND VPWR VPWR sky130_fd_sc_hd__fill_2
XFILLER_6_29 VPWR VGND VPWR VGND sky130_ef_sc_hd__decap_12
XFILLER_3_222 VGND VGND VPWR VPWR sky130_fd_sc_hd__fill_2
X_022_ net57 net79 net65 net72 Inst_S_EF_DAC8_ConfigMem.Inst_frame1_bit19.Q Inst_S_EF_DAC8_ConfigMem.Inst_frame1_bit18.Q
+ VGND VGND VPWR VPWR Inst_S_EF_DAC8_switch_matrix.N2BEG1 sky130_fd_sc_hd__mux4_1
XFILLER_0_225 VGND VGND VPWR VPWR sky130_fd_sc_hd__fill_2
XPHY_EDGE_ROW_1_Right_1 VGND VGND VPWR VPWR sky130_fd_sc_hd__decap_3
X_005_ net53 net49 net61 net75 Inst_S_EF_DAC8_ConfigMem.Inst_frame0_bit20.Q Inst_S_EF_DAC8_ConfigMem.Inst_frame0_bit21.Q
+ VGND VGND VPWR VPWR net190 sky130_fd_sc_hd__mux4_2
XFILLER_7_391 VGND VGND VPWR VPWR sky130_fd_sc_hd__fill_1
XFILLER_8_177 VGND VGND VPWR VPWR sky130_fd_sc_hd__decap_3
XFILLER_4_350 VPWR VGND VPWR VGND sky130_ef_sc_hd__decap_12
XTAP_TAPCELL_ROW_11_116 VGND VPWR sky130_fd_sc_hd__tapvpwrvgnd_1
XFILLER_1_397 VGND VGND VPWR VPWR sky130_fd_sc_hd__fill_1
XFILLER_5_125 VPWR VGND VPWR VGND sky130_ef_sc_hd__decap_12
XFILLER_5_169 VPWR VGND VPWR VGND sky130_ef_sc_hd__decap_12
XFILLER_2_139 VGND VGND VPWR VPWR sky130_fd_sc_hd__fill_1
XTAP_TAPCELL_ROW_9_94 VGND VPWR sky130_fd_sc_hd__tapvpwrvgnd_1
XTAP_TAPCELL_ROW_0_30 VGND VPWR sky130_fd_sc_hd__tapvpwrvgnd_1
XFILLER_1_161 VGND VGND VPWR VPWR sky130_fd_sc_hd__decap_6
XFILLER_6_253 VGND VGND VPWR VPWR sky130_fd_sc_hd__decap_6
X_098_ net24 VGND VGND VPWR VPWR net100 sky130_fd_sc_hd__clkbuf_2
X_167_ net82 VGND VGND VPWR VPWR net183 sky130_fd_sc_hd__clkbuf_1
X_021_ net56 net78 net64 net71 Inst_S_EF_DAC8_ConfigMem.Inst_frame1_bit21.Q Inst_S_EF_DAC8_ConfigMem.Inst_frame1_bit20.Q
+ VGND VGND VPWR VPWR Inst_S_EF_DAC8_switch_matrix.N2BEG2 sky130_fd_sc_hd__mux4_1
XPHY_EDGE_ROW_11_Left_23 VGND VGND VPWR VPWR sky130_fd_sc_hd__decap_3
XTAP_TAPCELL_ROW_6_73 VGND VPWR sky130_fd_sc_hd__tapvpwrvgnd_1
XFILLER_8_304 VGND VGND VPWR VPWR sky130_fd_sc_hd__decap_4
X_004_ net54 net50 net62 net76 Inst_S_EF_DAC8_ConfigMem.Inst_frame0_bit22.Q Inst_S_EF_DAC8_ConfigMem.Inst_frame0_bit23.Q
+ VGND VGND VPWR VPWR net191 sky130_fd_sc_hd__mux4_1
XFILLER_5_307 VPWR VGND VPWR VGND sky130_ef_sc_hd__decap_12
XTAP_TAPCELL_ROW_3_52 VGND VPWR sky130_fd_sc_hd__tapvpwrvgnd_1
XFILLER_4_362 VGND VGND VPWR VPWR sky130_fd_sc_hd__fill_2
XTAP_TAPCELL_ROW_11_117 VGND VPWR sky130_fd_sc_hd__tapvpwrvgnd_1
XFILLER_5_137 VPWR VGND VPWR VGND sky130_ef_sc_hd__decap_12
XFILLER_4_85 VPWR VGND VPWR VGND sky130_ef_sc_hd__decap_12
XFILLER_11_409 VGND VGND VPWR VPWR sky130_fd_sc_hd__fill_1
XFILLER_3_9 VPWR VGND VPWR VGND sky130_ef_sc_hd__decap_12
XTAP_TAPCELL_ROW_9_95 VGND VPWR sky130_fd_sc_hd__tapvpwrvgnd_1
XTAP_TAPCELL_ROW_0_31 VGND VPWR sky130_fd_sc_hd__tapvpwrvgnd_1
XFILLER_3_405 VGND VGND VPWR VPWR sky130_fd_sc_hd__decap_4
X_097_ net23 VGND VGND VPWR VPWR net99 sky130_fd_sc_hd__clkbuf_2
XFILLER_1_31 VPWR VGND VPWR VGND sky130_ef_sc_hd__decap_12
X_166_ net68 VGND VGND VPWR VPWR net182 sky130_fd_sc_hd__buf_1
X_020_ net55 net77 net63 net70 Inst_S_EF_DAC8_ConfigMem.Inst_frame1_bit23.Q Inst_S_EF_DAC8_ConfigMem.Inst_frame1_bit22.Q
+ VGND VGND VPWR VPWR Inst_S_EF_DAC8_switch_matrix.N2BEG3 sky130_fd_sc_hd__mux4_1
XFILLER_10_95 VGND VGND VPWR VPWR sky130_fd_sc_hd__fill_1
X_149_ S4END[11] VGND VGND VPWR VPWR net165 sky130_fd_sc_hd__buf_1
XTAP_TAPCELL_ROW_6_74 VGND VPWR sky130_fd_sc_hd__tapvpwrvgnd_1
X_003_ net39 net43 net63 net77 Inst_S_EF_DAC8_ConfigMem.Inst_frame0_bit24.Q Inst_S_EF_DAC8_ConfigMem.Inst_frame0_bit25.Q
+ VGND VGND VPWR VPWR net192 sky130_fd_sc_hd__mux4_1
XFILLER_7_393 VGND VGND VPWR VPWR sky130_fd_sc_hd__decap_4
XFILLER_5_319 VPWR VGND VPWR VGND sky130_ef_sc_hd__decap_12
XTAP_TAPCELL_ROW_3_53 VGND VPWR sky130_fd_sc_hd__tapvpwrvgnd_1
XTAP_TAPCELL_ROW_11_118 VGND VPWR sky130_fd_sc_hd__tapvpwrvgnd_1
XFILLER_5_105 VGND VGND VPWR VPWR sky130_fd_sc_hd__decap_6
XFILLER_5_149 VPWR VGND VPWR VGND sky130_ef_sc_hd__decap_12
XFILLER_1_311 VPWR VGND VPWR VGND sky130_ef_sc_hd__decap_12
XFILLER_4_193 VGND VGND VPWR VPWR sky130_fd_sc_hd__decap_3
XFILLER_4_75 VGND VGND VPWR VPWR sky130_fd_sc_hd__decap_8
XFILLER_4_97 VGND VGND VPWR VPWR sky130_fd_sc_hd__decap_3
XTAP_TAPCELL_ROW_0_32 VGND VPWR sky130_fd_sc_hd__tapvpwrvgnd_1
XFILLER_1_196 VPWR VGND VPWR VGND sky130_ef_sc_hd__decap_12
XTAP_TAPCELL_ROW_9_96 VGND VPWR sky130_fd_sc_hd__tapvpwrvgnd_1
XFILLER_10_240 VPWR VGND VPWR VGND sky130_ef_sc_hd__decap_12
X_165_ net69 VGND VGND VPWR VPWR net181 sky130_fd_sc_hd__clkbuf_1
X_096_ net22 VGND VGND VPWR VPWR net98 sky130_fd_sc_hd__buf_1
XFILLER_1_43 VGND VGND VPWR VPWR sky130_fd_sc_hd__fill_1
XFILLER_10_41 VGND VGND VPWR VPWR sky130_fd_sc_hd__fill_1
X_148_ S4END[12] VGND VGND VPWR VPWR net164 sky130_fd_sc_hd__clkbuf_2
XTAP_TAPCELL_ROW_6_75 VGND VPWR sky130_fd_sc_hd__tapvpwrvgnd_1
X_079_ net35 VGND VGND VPWR VPWR net111 sky130_fd_sc_hd__buf_1
XFILLER_2_280 VGND VGND VPWR VPWR sky130_fd_sc_hd__decap_4
XFILLER_0_239 VPWR VGND VPWR VGND sky130_ef_sc_hd__decap_12
X_002_ net40 net44 net64 net78 Inst_S_EF_DAC8_ConfigMem.Inst_frame0_bit26.Q Inst_S_EF_DAC8_ConfigMem.Inst_frame0_bit27.Q
+ VGND VGND VPWR VPWR net193 sky130_fd_sc_hd__mux4_1
XFILLER_7_361 VPWR VGND VPWR VGND sky130_ef_sc_hd__decap_12
XPHY_EDGE_ROW_5_Right_5 VGND VGND VPWR VPWR sky130_fd_sc_hd__decap_3
XTAP_TAPCELL_ROW_3_54 VGND VPWR sky130_fd_sc_hd__tapvpwrvgnd_1
XTAP_TAPCELL_ROW_11_119 VGND VPWR sky130_fd_sc_hd__tapvpwrvgnd_1
XTAP_TAPCELL_ROW_11_108 VGND VPWR sky130_fd_sc_hd__tapvpwrvgnd_1
XFILLER_1_323 VPWR VGND VPWR VGND sky130_ef_sc_hd__decap_12
XFILLER_4_21 VGND VGND VPWR VPWR sky130_fd_sc_hd__decap_6
XFILLER_4_172 VGND VGND VPWR VPWR sky130_fd_sc_hd__decap_8
XTAP_TAPCELL_ROW_0_33 VGND VPWR sky130_fd_sc_hd__tapvpwrvgnd_1
XTAP_TAPCELL_ROW_9_97 VGND VPWR sky130_fd_sc_hd__tapvpwrvgnd_1
XFILLER_10_296 VGND VGND VPWR VPWR sky130_fd_sc_hd__fill_1
X_164_ net70 VGND VGND VPWR VPWR net180 sky130_fd_sc_hd__clkbuf_1
X_095_ net21 VGND VGND VPWR VPWR net97 sky130_fd_sc_hd__buf_1
XFILLER_6_212 VPWR VGND VPWR VGND sky130_ef_sc_hd__decap_12
XFILLER_1_77 VGND VGND VPWR VPWR sky130_fd_sc_hd__fill_2
XFILLER_10_64 VGND VGND VPWR VPWR sky130_fd_sc_hd__fill_2
XTAP_TAPCELL_ROW_6_76 VGND VPWR sky130_fd_sc_hd__tapvpwrvgnd_1
X_147_ S4END[13] VGND VGND VPWR VPWR net163 sky130_fd_sc_hd__clkbuf_2
X_078_ net34 VGND VGND VPWR VPWR net110 sky130_fd_sc_hd__clkbuf_2
X_001_ net41 net45 net65 net79 Inst_S_EF_DAC8_ConfigMem.Inst_frame0_bit28.Q Inst_S_EF_DAC8_ConfigMem.Inst_frame0_bit29.Q
+ VGND VGND VPWR VPWR net194 sky130_fd_sc_hd__mux4_2
XFILLER_7_373 VPWR VGND VPWR VGND sky130_ef_sc_hd__decap_12
XPHY_EDGE_ROW_11_Right_11 VGND VGND VPWR VPWR sky130_fd_sc_hd__decap_3
XTAP_TAPCELL_ROW_3_55 VGND VPWR sky130_fd_sc_hd__tapvpwrvgnd_1
XFILLER_4_365 VPWR VGND VPWR VGND sky130_ef_sc_hd__decap_12
XFILLER_7_181 VGND VGND VPWR VPWR sky130_fd_sc_hd__decap_3
XTAP_TAPCELL_ROW_11_109 VGND VPWR sky130_fd_sc_hd__tapvpwrvgnd_1
XFILLER_1_335 VGND VGND VPWR VPWR sky130_fd_sc_hd__fill_1
XTAP_TAPCELL_ROW_9_98 VGND VPWR sky130_fd_sc_hd__tapvpwrvgnd_1
XTAP_TAPCELL_ROW_0_34 VGND VPWR sky130_fd_sc_hd__tapvpwrvgnd_1
XPHY_EDGE_ROW_3_Left_15 VGND VGND VPWR VPWR sky130_fd_sc_hd__decap_3
XFILLER_10_264 VGND VGND VPWR VPWR sky130_fd_sc_hd__fill_2
XFILLER_6_224 VPWR VGND VPWR VGND sky130_ef_sc_hd__decap_12
X_094_ net20 VGND VGND VPWR VPWR net96 sky130_fd_sc_hd__clkbuf_2
X_163_ net71 VGND VGND VPWR VPWR net179 sky130_fd_sc_hd__buf_1
XFILLER_10_32 VGND VGND VPWR VPWR sky130_fd_sc_hd__fill_1
X_146_ S4END[14] VGND VGND VPWR VPWR net162 sky130_fd_sc_hd__clkbuf_2
XTAP_TAPCELL_ROW_6_77 VGND VPWR sky130_fd_sc_hd__tapvpwrvgnd_1
X_077_ net33 VGND VGND VPWR VPWR net109 sky130_fd_sc_hd__clkbuf_2
X_000_ net42 net46 net66 net80 Inst_S_EF_DAC8_ConfigMem.Inst_frame0_bit30.Q Inst_S_EF_DAC8_ConfigMem.Inst_frame0_bit31.Q
+ VGND VGND VPWR VPWR net195 sky130_fd_sc_hd__mux4_1
XFILLER_7_55 VGND VGND VPWR VPWR sky130_fd_sc_hd__fill_1
XFILLER_7_385 VGND VGND VPWR VPWR sky130_fd_sc_hd__decap_6
X_129_ Inst_S_EF_DAC8_switch_matrix.N2BEG0 VGND VGND VPWR VPWR net139 sky130_fd_sc_hd__buf_1
XFILLER_7_99 VGND VGND VPWR VPWR sky130_fd_sc_hd__fill_1
XTAP_TAPCELL_ROW_3_56 VGND VPWR sky130_fd_sc_hd__tapvpwrvgnd_1
XFILLER_4_377 VPWR VGND VPWR VGND sky130_ef_sc_hd__decap_12
XFILLER_4_141 VPWR VGND VPWR VGND sky130_ef_sc_hd__decap_12
XTAP_TAPCELL_ROW_9_99 VGND VPWR sky130_fd_sc_hd__tapvpwrvgnd_1
XFILLER_6_406 VGND VGND VPWR VPWR sky130_fd_sc_hd__decap_4
XFILLER_1_100 VPWR VGND VPWR VGND sky130_ef_sc_hd__decap_12
XTAP_TAPCELL_ROW_0_24 VGND VPWR sky130_fd_sc_hd__tapvpwrvgnd_1
XTAP_TAPCELL_ROW_0_35 VGND VPWR sky130_fd_sc_hd__tapvpwrvgnd_1
XFILLER_3_409 VGND VGND VPWR VPWR sky130_fd_sc_hd__fill_1
XFILLER_10_210 VGND VGND VPWR VPWR sky130_fd_sc_hd__decap_3
XFILLER_6_236 VPWR VGND VPWR VGND sky130_ef_sc_hd__decap_12
X_093_ net19 VGND VGND VPWR VPWR net95 sky130_fd_sc_hd__buf_1
X_162_ net72 VGND VGND VPWR VPWR net178 sky130_fd_sc_hd__buf_1
Xinput1 FrameData[0] VGND VGND VPWR VPWR net1 sky130_fd_sc_hd__buf_1
X_145_ S4END[15] VGND VGND VPWR VPWR net155 sky130_fd_sc_hd__clkbuf_2
XTAP_TAPCELL_ROW_6_78 VGND VPWR sky130_fd_sc_hd__tapvpwrvgnd_1
X_076_ net32 VGND VGND VPWR VPWR net108 sky130_fd_sc_hd__clkbuf_1
XFILLER_0_209 VPWR VGND VPWR VGND sky130_ef_sc_hd__decap_12
XFILLER_8_309 VPWR VGND VPWR VGND sky130_ef_sc_hd__decap_12
X_128_ net39 VGND VGND VPWR VPWR net138 sky130_fd_sc_hd__buf_1
X_059_ net11 net16 VGND VGND VPWR VPWR Inst_S_EF_DAC8_ConfigMem.Inst_frame0_bit19.Q
+ sky130_fd_sc_hd__dlxtp_1
Xinput70 SS4END[3] VGND VGND VPWR VPWR net76 sky130_fd_sc_hd__dlymetal6s2s_1
XTAP_TAPCELL_ROW_3_57 VGND VPWR sky130_fd_sc_hd__tapvpwrvgnd_1
XPHY_EDGE_ROW_9_Right_9 VGND VGND VPWR VPWR sky130_fd_sc_hd__decap_3
XFILLER_7_161 VGND VGND VPWR VPWR sky130_fd_sc_hd__decap_6
XFILLER_4_389 VPWR VGND VPWR VGND sky130_ef_sc_hd__decap_12
XFILLER_1_337 VPWR VGND VPWR VGND sky130_ef_sc_hd__decap_12
XFILLER_4_153 VPWR VGND VPWR VGND sky130_ef_sc_hd__decap_12
XFILLER_4_197 VPWR VGND VPWR VGND sky130_ef_sc_hd__decap_12
XFILLER_1_167 VGND VGND VPWR VPWR sky130_fd_sc_hd__fill_1
XTAP_TAPCELL_ROW_0_25 VGND VPWR sky130_fd_sc_hd__tapvpwrvgnd_1
XTAP_TAPCELL_ROW_0_36 VGND VPWR sky130_fd_sc_hd__tapvpwrvgnd_1
XFILLER_9_278 VGND VGND VPWR VPWR sky130_fd_sc_hd__fill_2
X_161_ net73 VGND VGND VPWR VPWR net171 sky130_fd_sc_hd__clkbuf_1
XFILLER_6_248 VGND VGND VPWR VPWR sky130_fd_sc_hd__decap_4
X_092_ net11 VGND VGND VPWR VPWR net93 sky130_fd_sc_hd__clkbuf_2
XFILLER_5_281 VPWR VGND VPWR VGND sky130_ef_sc_hd__decap_12
Xinput2 FrameData[10] VGND VGND VPWR VPWR net2 sky130_fd_sc_hd__buf_1
X_144_ Inst_S_EF_DAC8_switch_matrix.N2BEGb7 VGND VGND VPWR VPWR net154 sky130_fd_sc_hd__buf_1
XTAP_TAPCELL_ROW_6_79 VGND VPWR sky130_fd_sc_hd__tapvpwrvgnd_1
XFILLER_2_251 VGND VGND VPWR VPWR sky130_fd_sc_hd__fill_1
X_075_ net29 VGND VGND VPWR VPWR net105 sky130_fd_sc_hd__clkbuf_1
Xoutput180 net186 VGND VGND VPWR VPWR NN4BEG[9] sky130_fd_sc_hd__buf_2
XFILLER_7_13 VPWR VGND VPWR VGND sky130_ef_sc_hd__decap_12
X_058_ net10 net16 VGND VGND VPWR VPWR Inst_S_EF_DAC8_ConfigMem.Inst_frame0_bit18.Q
+ sky130_fd_sc_hd__dlxtp_1
X_127_ net40 VGND VGND VPWR VPWR net137 sky130_fd_sc_hd__clkbuf_1
Xinput60 S4END[7] VGND VGND VPWR VPWR net66 sky130_fd_sc_hd__buf_1
Xinput71 SS4END[4] VGND VGND VPWR VPWR net77 sky130_fd_sc_hd__buf_1
XTAP_TAPCELL_ROW_3_58 VGND VPWR sky130_fd_sc_hd__tapvpwrvgnd_1
XTAP_TAPCELL_ROW_10_101 VGND VPWR sky130_fd_sc_hd__tapvpwrvgnd_1
XFILLER_1_349 VPWR VGND VPWR VGND sky130_ef_sc_hd__decap_12
XFILLER_4_36 VGND VGND VPWR VPWR sky130_fd_sc_hd__decap_4
XFILLER_4_121 VPWR VGND VPWR VGND sky130_ef_sc_hd__decap_12
XFILLER_4_165 VGND VGND VPWR VPWR sky130_fd_sc_hd__decap_3
XFILLER_0_393 VGND VGND VPWR VPWR sky130_fd_sc_hd__decap_4
XTAP_TAPCELL_ROW_0_26 VGND VPWR sky130_fd_sc_hd__tapvpwrvgnd_1
XTAP_TAPCELL_ROW_0_37 VGND VPWR sky130_fd_sc_hd__tapvpwrvgnd_1
Xfanout13 FrameStrobe[1] VGND VGND VPWR VPWR net13 sky130_fd_sc_hd__clkbuf_2
XFILLER_10_278 VPWR VGND VPWR VGND sky130_ef_sc_hd__decap_12
X_160_ net59 VGND VGND VPWR VPWR net161 sky130_fd_sc_hd__buf_1
X_091_ net10 VGND VGND VPWR VPWR net92 sky130_fd_sc_hd__clkbuf_2
XPHY_EDGE_ROW_7_Left_19 VGND VGND VPWR VPWR sky130_fd_sc_hd__decap_3
XFILLER_5_293 VGND VGND VPWR VPWR sky130_fd_sc_hd__fill_2
Xinput3 FrameData[11] VGND VGND VPWR VPWR net3 sky130_fd_sc_hd__buf_1
XFILLER_10_46 VGND VGND VPWR VPWR sky130_fd_sc_hd__decap_8
X_074_ net12 VGND VGND VPWR VPWR net94 sky130_fd_sc_hd__clkbuf_2
X_143_ Inst_S_EF_DAC8_switch_matrix.N2BEGb6 VGND VGND VPWR VPWR net153 sky130_fd_sc_hd__clkbuf_1
Xoutput170 net176 VGND VGND VPWR VPWR NN4BEG[14] sky130_fd_sc_hd__buf_2
Xoutput181 net187 VGND VGND VPWR VPWR UserCLKo sky130_fd_sc_hd__buf_1
XFILLER_11_362 VGND VGND VPWR VPWR sky130_fd_sc_hd__fill_2
XFILLER_11_340 VGND VGND VPWR VPWR sky130_fd_sc_hd__fill_2
X_057_ net9 net15 VGND VGND VPWR VPWR Inst_S_EF_DAC8_ConfigMem.Inst_frame0_bit17.Q
+ sky130_fd_sc_hd__dlxtp_1
XFILLER_7_69 VGND VGND VPWR VPWR sky130_fd_sc_hd__fill_1
XFILLER_7_25 VPWR VGND VPWR VGND sky130_ef_sc_hd__decap_12
X_126_ net41 VGND VGND VPWR VPWR net136 sky130_fd_sc_hd__clkbuf_2
Xinput72 SS4END[5] VGND VGND VPWR VPWR net78 sky130_fd_sc_hd__clkbuf_2
Xinput61 SS4END[0] VGND VGND VPWR VPWR net67 sky130_fd_sc_hd__buf_1
Xinput50 S2MID[5] VGND VGND VPWR VPWR net56 sky130_fd_sc_hd__buf_1
XPHY_EDGE_ROW_0_Right_0 VGND VGND VPWR VPWR sky130_fd_sc_hd__decap_3
XFILLER_4_314 VPWR VGND VPWR VGND sky130_ef_sc_hd__decap_12
X_109_ FrameStrobe[4] VGND VGND VPWR VPWR net129 sky130_fd_sc_hd__clkbuf_1
XFILLER_3_391 VGND VGND VPWR VPWR sky130_fd_sc_hd__fill_1
XTAP_TAPCELL_ROW_10_102 VGND VPWR sky130_fd_sc_hd__tapvpwrvgnd_1
XFILLER_0_361 VGND VGND VPWR VPWR sky130_fd_sc_hd__decap_3
XFILLER_4_133 VGND VGND VPWR VPWR sky130_fd_sc_hd__decap_6
XTAP_TAPCELL_ROW_0_27 VGND VPWR sky130_fd_sc_hd__tapvpwrvgnd_1
XFILLER_1_125 VPWR VGND VPWR VGND sky130_ef_sc_hd__decap_12
Xfanout14 FrameStrobe[1] VGND VGND VPWR VPWR net14 sky130_fd_sc_hd__dlymetal6s2s_1
XFILLER_9_225 VPWR VGND VPWR VGND sky130_ef_sc_hd__decap_12
XFILLER_10_202 VGND VGND VPWR VPWR sky130_fd_sc_hd__decap_4
X_090_ net9 VGND VGND VPWR VPWR net91 sky130_fd_sc_hd__buf_1
XFILLER_5_261 VPWR VGND VPWR VGND sky130_ef_sc_hd__decap_12
Xinput4 FrameData[12] VGND VGND VPWR VPWR net4 sky130_fd_sc_hd__clkbuf_1
XFILLER_10_58 VGND VGND VPWR VPWR sky130_fd_sc_hd__fill_2
X_142_ Inst_S_EF_DAC8_switch_matrix.N2BEGb5 VGND VGND VPWR VPWR net152 sky130_fd_sc_hd__buf_1
X_073_ net1 VGND VGND VPWR VPWR net83 sky130_fd_sc_hd__clkbuf_2
Xoutput171 net177 VGND VGND VPWR VPWR NN4BEG[15] sky130_fd_sc_hd__buf_2