* NGSPICE file created from EF_SRAM.ext - technology: sky130A

* Black-box entry subcircuit for sky130_fd_sc_hd__mux4_1 abstract view
.subckt sky130_fd_sc_hd__mux4_1 A0 A1 A2 A3 S0 S1 VGND VNB VPB VPWR X
.ends

* Black-box entry subcircuit for sky130_fd_sc_hd__a2bb2o_1 abstract view
.subckt sky130_fd_sc_hd__a2bb2o_1 A1_N A2_N B1 B2 VGND VNB VPB VPWR X
.ends

* Black-box entry subcircuit for sky130_fd_sc_hd__tapvpwrvgnd_1 abstract view
.subckt sky130_fd_sc_hd__tapvpwrvgnd_1 VGND VPWR
.ends

* Black-box entry subcircuit for sky130_ef_sc_hd__decap_12 abstract view
.subckt sky130_ef_sc_hd__decap_12 VPWR VGND VPB VNB
.ends

* Black-box entry subcircuit for sky130_fd_sc_hd__fill_1 abstract view
.subckt sky130_fd_sc_hd__fill_1 VGND VNB VPB VPWR
.ends

* Black-box entry subcircuit for sky130_fd_sc_hd__decap_8 abstract view
.subckt sky130_fd_sc_hd__decap_8 VGND VNB VPB VPWR
.ends

* Black-box entry subcircuit for sky130_fd_sc_hd__decap_4 abstract view
.subckt sky130_fd_sc_hd__decap_4 VGND VNB VPB VPWR
.ends

* Black-box entry subcircuit for sky130_fd_sc_hd__decap_6 abstract view
.subckt sky130_fd_sc_hd__decap_6 VGND VNB VPB VPWR
.ends

* Black-box entry subcircuit for sky130_fd_sc_hd__dlxtp_1 abstract view
.subckt sky130_fd_sc_hd__dlxtp_1 D GATE VGND VNB VPB VPWR Q
.ends

* Black-box entry subcircuit for sky130_fd_sc_hd__inv_1 abstract view
.subckt sky130_fd_sc_hd__inv_1 A VGND VNB VPB VPWR Y
.ends

* Black-box entry subcircuit for sky130_fd_sc_hd__buf_2 abstract view
.subckt sky130_fd_sc_hd__buf_2 A VGND VNB VPB VPWR X
.ends

* Black-box entry subcircuit for sky130_fd_sc_hd__buf_1 abstract view
.subckt sky130_fd_sc_hd__buf_1 A VGND VNB VPB VPWR X
.ends

* Black-box entry subcircuit for sky130_fd_sc_hd__clkbuf_2 abstract view
.subckt sky130_fd_sc_hd__clkbuf_2 A VGND VNB VPB VPWR X
.ends

* Black-box entry subcircuit for sky130_fd_sc_hd__fill_2 abstract view
.subckt sky130_fd_sc_hd__fill_2 VGND VNB VPB VPWR
.ends

* Black-box entry subcircuit for sky130_fd_sc_hd__clkbuf_1 abstract view
.subckt sky130_fd_sc_hd__clkbuf_1 A VGND VNB VPB VPWR X
.ends

* Black-box entry subcircuit for sky130_fd_sc_hd__decap_3 abstract view
.subckt sky130_fd_sc_hd__decap_3 VGND VNB VPB VPWR
.ends

* Black-box entry subcircuit for sky130_fd_sc_hd__o31a_1 abstract view
.subckt sky130_fd_sc_hd__o31a_1 A1 A2 A3 B1 VGND VNB VPB VPWR X
.ends

* Black-box entry subcircuit for sky130_fd_sc_hd__a21o_1 abstract view
.subckt sky130_fd_sc_hd__a21o_1 A1 A2 B1 VGND VNB VPB VPWR X
.ends

* Black-box entry subcircuit for sky130_fd_sc_hd__a31o_1 abstract view
.subckt sky130_fd_sc_hd__a31o_1 A1 A2 A3 B1 VGND VNB VPB VPWR X
.ends

* Black-box entry subcircuit for sky130_fd_sc_hd__diode_2 abstract view
.subckt sky130_fd_sc_hd__diode_2 DIODE VGND VNB VPB VPWR
.ends

* Black-box entry subcircuit for sky130_fd_sc_hd__a2bb2o_2 abstract view
.subckt sky130_fd_sc_hd__a2bb2o_2 A1_N A2_N B1 B2 VGND VNB VPB VPWR X
.ends

* Black-box entry subcircuit for sky130_fd_sc_hd__mux4_2 abstract view
.subckt sky130_fd_sc_hd__mux4_2 A0 A1 A2 A3 S0 S1 VGND VNB VPB VPWR X
.ends

* Black-box entry subcircuit for sky130_fd_sc_hd__dlymetal6s2s_1 abstract view
.subckt sky130_fd_sc_hd__dlymetal6s2s_1 A VGND VNB VPB VPWR X
.ends

* Black-box entry subcircuit for sky130_fd_sc_hd__nand2_1 abstract view
.subckt sky130_fd_sc_hd__nand2_1 A B VGND VNB VPB VPWR Y
.ends

* Black-box entry subcircuit for sky130_fd_sc_hd__buf_4 abstract view
.subckt sky130_fd_sc_hd__buf_4 A VGND VNB VPB VPWR X
.ends

* Black-box entry subcircuit for sky130_fd_sc_hd__clkbuf_4 abstract view
.subckt sky130_fd_sc_hd__clkbuf_4 A VGND VNB VPB VPWR X
.ends

* Black-box entry subcircuit for sky130_fd_sc_hd__o311a_1 abstract view
.subckt sky130_fd_sc_hd__o311a_1 A1 A2 A3 B1 C1 VGND VNB VPB VPWR X
.ends

* Black-box entry subcircuit for sky130_fd_sc_hd__mux2_1 abstract view
.subckt sky130_fd_sc_hd__mux2_1 A0 A1 S VGND VNB VPB VPWR X
.ends

* Black-box entry subcircuit for sky130_fd_sc_hd__o21a_1 abstract view
.subckt sky130_fd_sc_hd__o21a_1 A1 A2 B1 VGND VNB VPB VPWR X
.ends

* Black-box entry subcircuit for sky130_fd_sc_hd__or3b_1 abstract view
.subckt sky130_fd_sc_hd__or3b_1 A B C_N VGND VNB VPB VPWR X
.ends

* Black-box entry subcircuit for sky130_fd_sc_hd__o211a_1 abstract view
.subckt sky130_fd_sc_hd__o211a_1 A1 A2 B1 C1 VGND VNB VPB VPWR X
.ends

* Black-box entry subcircuit for sky130_fd_sc_hd__o21ba_1 abstract view
.subckt sky130_fd_sc_hd__o21ba_1 A1 A2 B1_N VGND VNB VPB VPWR X
.ends

* Black-box entry subcircuit for sky130_fd_sc_hd__a221o_1 abstract view
.subckt sky130_fd_sc_hd__a221o_1 A1 A2 B1 B2 C1 VGND VNB VPB VPWR X
.ends

* Black-box entry subcircuit for sky130_fd_sc_hd__and3b_1 abstract view
.subckt sky130_fd_sc_hd__and3b_1 A_N B C VGND VNB VPB VPWR X
.ends

* Black-box entry subcircuit for sky130_fd_sc_hd__o22a_1 abstract view
.subckt sky130_fd_sc_hd__o22a_1 A1 A2 B1 B2 VGND VNB VPB VPWR X
.ends

* Black-box entry subcircuit for sky130_fd_sc_hd__or2_1 abstract view
.subckt sky130_fd_sc_hd__or2_1 A B VGND VNB VPB VPWR X
.ends

* Black-box entry subcircuit for sky130_fd_sc_hd__inv_2 abstract view
.subckt sky130_fd_sc_hd__inv_2 A VGND VNB VPB VPWR Y
.ends

* Black-box entry subcircuit for sky130_fd_sc_hd__clkbuf_16 abstract view
.subckt sky130_fd_sc_hd__clkbuf_16 A VGND VNB VPB VPWR X
.ends

* Black-box entry subcircuit for sky130_fd_sc_hd__nand2b_1 abstract view
.subckt sky130_fd_sc_hd__nand2b_1 A_N B VGND VNB VPB VPWR Y
.ends

* Black-box entry subcircuit for sky130_fd_sc_hd__or3_1 abstract view
.subckt sky130_fd_sc_hd__or3_1 A B C VGND VNB VPB VPWR X
.ends

* Black-box entry subcircuit for sky130_fd_sc_hd__a32o_1 abstract view
.subckt sky130_fd_sc_hd__a32o_1 A1 A2 A3 B1 B2 VGND VNB VPB VPWR X
.ends

* Black-box entry subcircuit for sky130_fd_sc_hd__a31o_2 abstract view
.subckt sky130_fd_sc_hd__a31o_2 A1 A2 A3 B1 VGND VNB VPB VPWR X
.ends

* Black-box entry subcircuit for sky130_fd_sc_hd__o21ai_1 abstract view
.subckt sky130_fd_sc_hd__o21ai_1 A1 A2 B1 VGND VNB VPB VPWR Y
.ends

* Black-box entry subcircuit for sky130_fd_sc_hd__nor3_1 abstract view
.subckt sky130_fd_sc_hd__nor3_1 A B C VGND VNB VPB VPWR Y
.ends

* Black-box entry subcircuit for sky130_fd_sc_hd__a21oi_1 abstract view
.subckt sky130_fd_sc_hd__a21oi_1 A1 A2 B1 VGND VNB VPB VPWR Y
.ends

.subckt EF_SRAM AD_SRAM0 AD_SRAM1 AD_SRAM2 AD_SRAM3 AD_SRAM4 AD_SRAM5 AD_SRAM6 AD_SRAM7
+ AD_SRAM8 AD_SRAM9 BEN_SRAM0 BEN_SRAM1 BEN_SRAM10 BEN_SRAM11 BEN_SRAM12 BEN_SRAM13
+ BEN_SRAM14 BEN_SRAM15 BEN_SRAM16 BEN_SRAM17 BEN_SRAM18 BEN_SRAM19 BEN_SRAM2 BEN_SRAM20
+ BEN_SRAM21 BEN_SRAM22 BEN_SRAM23 BEN_SRAM24 BEN_SRAM25 BEN_SRAM26 BEN_SRAM27 BEN_SRAM28
+ BEN_SRAM29 BEN_SRAM3 BEN_SRAM30 BEN_SRAM31 BEN_SRAM4 BEN_SRAM5 BEN_SRAM6 BEN_SRAM7
+ BEN_SRAM8 BEN_SRAM9 CLOCK_SRAM DI_SRAM0 DI_SRAM1 DI_SRAM10 DI_SRAM11 DI_SRAM12 DI_SRAM13
+ DI_SRAM14 DI_SRAM15 DI_SRAM16 DI_SRAM17 DI_SRAM18 DI_SRAM19 DI_SRAM2 DI_SRAM20 DI_SRAM21
+ DI_SRAM22 DI_SRAM23 DI_SRAM24 DI_SRAM25 DI_SRAM26 DI_SRAM27 DI_SRAM28 DI_SRAM29
+ DI_SRAM3 DI_SRAM30 DI_SRAM31 DI_SRAM4 DI_SRAM5 DI_SRAM6 DI_SRAM7 DI_SRAM8 DI_SRAM9
+ DO_SRAM0 DO_SRAM1 DO_SRAM10 DO_SRAM11 DO_SRAM12 DO_SRAM13 DO_SRAM14 DO_SRAM15 DO_SRAM16
+ DO_SRAM17 DO_SRAM18 DO_SRAM19 DO_SRAM2 DO_SRAM20 DO_SRAM21 DO_SRAM22 DO_SRAM23 DO_SRAM24
+ DO_SRAM25 DO_SRAM26 DO_SRAM27 DO_SRAM28 DO_SRAM29 DO_SRAM3 DO_SRAM30 DO_SRAM31 DO_SRAM4
+ DO_SRAM5 DO_SRAM6 DO_SRAM7 DO_SRAM8 DO_SRAM9 EN_SRAM R_WB_SRAM Tile_X0Y0_E1END[0]
+ Tile_X0Y0_E1END[1] Tile_X0Y0_E1END[2] Tile_X0Y0_E1END[3] Tile_X0Y0_E2END[0] Tile_X0Y0_E2END[1]
+ Tile_X0Y0_E2END[2] Tile_X0Y0_E2END[3] Tile_X0Y0_E2END[4] Tile_X0Y0_E2END[5] Tile_X0Y0_E2END[6]
+ Tile_X0Y0_E2END[7] Tile_X0Y0_E2MID[0] Tile_X0Y0_E2MID[1] Tile_X0Y0_E2MID[2] Tile_X0Y0_E2MID[3]
+ Tile_X0Y0_E2MID[4] Tile_X0Y0_E2MID[5] Tile_X0Y0_E2MID[6] Tile_X0Y0_E2MID[7] Tile_X0Y0_E6END[0]
+ Tile_X0Y0_E6END[10] Tile_X0Y0_E6END[11] Tile_X0Y0_E6END[1] Tile_X0Y0_E6END[2] Tile_X0Y0_E6END[3]
+ Tile_X0Y0_E6END[4] Tile_X0Y0_E6END[5] Tile_X0Y0_E6END[6] Tile_X0Y0_E6END[7] Tile_X0Y0_E6END[8]
+ Tile_X0Y0_E6END[9] Tile_X0Y0_EE4END[0] Tile_X0Y0_EE4END[10] Tile_X0Y0_EE4END[11]
+ Tile_X0Y0_EE4END[12] Tile_X0Y0_EE4END[13] Tile_X0Y0_EE4END[14] Tile_X0Y0_EE4END[15]
+ Tile_X0Y0_EE4END[1] Tile_X0Y0_EE4END[2] Tile_X0Y0_EE4END[3] Tile_X0Y0_EE4END[4]
+ Tile_X0Y0_EE4END[5] Tile_X0Y0_EE4END[6] Tile_X0Y0_EE4END[7] Tile_X0Y0_EE4END[8]
+ Tile_X0Y0_EE4END[9] Tile_X0Y0_FrameData[0] Tile_X0Y0_FrameData[10] Tile_X0Y0_FrameData[11]
+ Tile_X0Y0_FrameData[12] Tile_X0Y0_FrameData[13] Tile_X0Y0_FrameData[14] Tile_X0Y0_FrameData[15]
+ Tile_X0Y0_FrameData[16] Tile_X0Y0_FrameData[17] Tile_X0Y0_FrameData[18] Tile_X0Y0_FrameData[19]
+ Tile_X0Y0_FrameData[1] Tile_X0Y0_FrameData[20] Tile_X0Y0_FrameData[21] Tile_X0Y0_FrameData[22]
+ Tile_X0Y0_FrameData[23] Tile_X0Y0_FrameData[24] Tile_X0Y0_FrameData[25] Tile_X0Y0_FrameData[26]
+ Tile_X0Y0_FrameData[27] Tile_X0Y0_FrameData[28] Tile_X0Y0_FrameData[29] Tile_X0Y0_FrameData[2]
+ Tile_X0Y0_FrameData[30] Tile_X0Y0_FrameData[31] Tile_X0Y0_FrameData[3] Tile_X0Y0_FrameData[4]
+ Tile_X0Y0_FrameData[5] Tile_X0Y0_FrameData[6] Tile_X0Y0_FrameData[7] Tile_X0Y0_FrameData[8]
+ Tile_X0Y0_FrameData[9] Tile_X0Y0_FrameData_O[0] Tile_X0Y0_FrameData_O[10] Tile_X0Y0_FrameData_O[11]
+ Tile_X0Y0_FrameData_O[12] Tile_X0Y0_FrameData_O[13] Tile_X0Y0_FrameData_O[14] Tile_X0Y0_FrameData_O[15]
+ Tile_X0Y0_FrameData_O[16] Tile_X0Y0_FrameData_O[17] Tile_X0Y0_FrameData_O[18] Tile_X0Y0_FrameData_O[19]
+ Tile_X0Y0_FrameData_O[1] Tile_X0Y0_FrameData_O[20] Tile_X0Y0_FrameData_O[21] Tile_X0Y0_FrameData_O[22]
+ Tile_X0Y0_FrameData_O[23] Tile_X0Y0_FrameData_O[24] Tile_X0Y0_FrameData_O[25] Tile_X0Y0_FrameData_O[26]
+ Tile_X0Y0_FrameData_O[27] Tile_X0Y0_FrameData_O[28] Tile_X0Y0_FrameData_O[29] Tile_X0Y0_FrameData_O[2]
+ Tile_X0Y0_FrameData_O[30] Tile_X0Y0_FrameData_O[31] Tile_X0Y0_FrameData_O[3] Tile_X0Y0_FrameData_O[4]
+ Tile_X0Y0_FrameData_O[5] Tile_X0Y0_FrameData_O[6] Tile_X0Y0_FrameData_O[7] Tile_X0Y0_FrameData_O[8]
+ Tile_X0Y0_FrameData_O[9] Tile_X0Y0_FrameStrobe_O[0] Tile_X0Y0_FrameStrobe_O[10]
+ Tile_X0Y0_FrameStrobe_O[11] Tile_X0Y0_FrameStrobe_O[12] Tile_X0Y0_FrameStrobe_O[13]
+ Tile_X0Y0_FrameStrobe_O[14] Tile_X0Y0_FrameStrobe_O[15] Tile_X0Y0_FrameStrobe_O[16]
+ Tile_X0Y0_FrameStrobe_O[17] Tile_X0Y0_FrameStrobe_O[18] Tile_X0Y0_FrameStrobe_O[19]
+ Tile_X0Y0_FrameStrobe_O[1] Tile_X0Y0_FrameStrobe_O[2] Tile_X0Y0_FrameStrobe_O[3]
+ Tile_X0Y0_FrameStrobe_O[4] Tile_X0Y0_FrameStrobe_O[5] Tile_X0Y0_FrameStrobe_O[6]
+ Tile_X0Y0_FrameStrobe_O[7] Tile_X0Y0_FrameStrobe_O[8] Tile_X0Y0_FrameStrobe_O[9]
+ Tile_X0Y0_N1BEG[0] Tile_X0Y0_N1BEG[1] Tile_X0Y0_N1BEG[2] Tile_X0Y0_N1BEG[3] Tile_X0Y0_N2BEG[0]
+ Tile_X0Y0_N2BEG[1] Tile_X0Y0_N2BEG[2] Tile_X0Y0_N2BEG[3] Tile_X0Y0_N2BEG[4] Tile_X0Y0_N2BEG[5]
+ Tile_X0Y0_N2BEG[6] Tile_X0Y0_N2BEG[7] Tile_X0Y0_N2BEGb[0] Tile_X0Y0_N2BEGb[1] Tile_X0Y0_N2BEGb[2]
+ Tile_X0Y0_N2BEGb[3] Tile_X0Y0_N2BEGb[4] Tile_X0Y0_N2BEGb[5] Tile_X0Y0_N2BEGb[6]
+ Tile_X0Y0_N2BEGb[7] Tile_X0Y0_N4BEG[0] Tile_X0Y0_N4BEG[10] Tile_X0Y0_N4BEG[11] Tile_X0Y0_N4BEG[12]
+ Tile_X0Y0_N4BEG[13] Tile_X0Y0_N4BEG[14] Tile_X0Y0_N4BEG[15] Tile_X0Y0_N4BEG[1] Tile_X0Y0_N4BEG[2]
+ Tile_X0Y0_N4BEG[3] Tile_X0Y0_N4BEG[4] Tile_X0Y0_N4BEG[5] Tile_X0Y0_N4BEG[6] Tile_X0Y0_N4BEG[7]
+ Tile_X0Y0_N4BEG[8] Tile_X0Y0_N4BEG[9] Tile_X0Y0_S1END[0] Tile_X0Y0_S1END[1] Tile_X0Y0_S1END[2]
+ Tile_X0Y0_S1END[3] Tile_X0Y0_S2END[0] Tile_X0Y0_S2END[1] Tile_X0Y0_S2END[2] Tile_X0Y0_S2END[3]
+ Tile_X0Y0_S2END[4] Tile_X0Y0_S2END[5] Tile_X0Y0_S2END[6] Tile_X0Y0_S2END[7] Tile_X0Y0_S2MID[0]
+ Tile_X0Y0_S2MID[1] Tile_X0Y0_S2MID[2] Tile_X0Y0_S2MID[3] Tile_X0Y0_S2MID[4] Tile_X0Y0_S2MID[5]
+ Tile_X0Y0_S2MID[6] Tile_X0Y0_S2MID[7] Tile_X0Y0_S4END[0] Tile_X0Y0_S4END[10] Tile_X0Y0_S4END[11]
+ Tile_X0Y0_S4END[12] Tile_X0Y0_S4END[13] Tile_X0Y0_S4END[14] Tile_X0Y0_S4END[15]
+ Tile_X0Y0_S4END[1] Tile_X0Y0_S4END[2] Tile_X0Y0_S4END[3] Tile_X0Y0_S4END[4] Tile_X0Y0_S4END[5]
+ Tile_X0Y0_S4END[6] Tile_X0Y0_S4END[7] Tile_X0Y0_S4END[8] Tile_X0Y0_S4END[9] Tile_X0Y0_UserCLKo
+ Tile_X0Y0_W1BEG[0] Tile_X0Y0_W1BEG[1] Tile_X0Y0_W1BEG[2] Tile_X0Y0_W1BEG[3] Tile_X0Y0_W2BEG[0]
+ Tile_X0Y0_W2BEG[1] Tile_X0Y0_W2BEG[2] Tile_X0Y0_W2BEG[3] Tile_X0Y0_W2BEG[4] Tile_X0Y0_W2BEG[5]
+ Tile_X0Y0_W2BEG[6] Tile_X0Y0_W2BEG[7] Tile_X0Y0_W2BEGb[0] Tile_X0Y0_W2BEGb[1] Tile_X0Y0_W2BEGb[2]
+ Tile_X0Y0_W2BEGb[3] Tile_X0Y0_W2BEGb[4] Tile_X0Y0_W2BEGb[5] Tile_X0Y0_W2BEGb[6]
+ Tile_X0Y0_W2BEGb[7] Tile_X0Y0_W6BEG[0] Tile_X0Y0_W6BEG[10] Tile_X0Y0_W6BEG[11] Tile_X0Y0_W6BEG[1]
+ Tile_X0Y0_W6BEG[2] Tile_X0Y0_W6BEG[3] Tile_X0Y0_W6BEG[4] Tile_X0Y0_W6BEG[5] Tile_X0Y0_W6BEG[6]
+ Tile_X0Y0_W6BEG[7] Tile_X0Y0_W6BEG[8] Tile_X0Y0_W6BEG[9] Tile_X0Y0_WW4BEG[0] Tile_X0Y0_WW4BEG[10]
+ Tile_X0Y0_WW4BEG[11] Tile_X0Y0_WW4BEG[12] Tile_X0Y0_WW4BEG[13] Tile_X0Y0_WW4BEG[14]
+ Tile_X0Y0_WW4BEG[15] Tile_X0Y0_WW4BEG[1] Tile_X0Y0_WW4BEG[2] Tile_X0Y0_WW4BEG[3]
+ Tile_X0Y0_WW4BEG[4] Tile_X0Y0_WW4BEG[5] Tile_X0Y0_WW4BEG[6] Tile_X0Y0_WW4BEG[7]
+ Tile_X0Y0_WW4BEG[8] Tile_X0Y0_WW4BEG[9] Tile_X0Y1_E1END[0] Tile_X0Y1_E1END[1] Tile_X0Y1_E1END[2]
+ Tile_X0Y1_E1END[3] Tile_X0Y1_E2END[0] Tile_X0Y1_E2END[1] Tile_X0Y1_E2END[2] Tile_X0Y1_E2END[3]
+ Tile_X0Y1_E2END[4] Tile_X0Y1_E2END[5] Tile_X0Y1_E2END[6] Tile_X0Y1_E2END[7] Tile_X0Y1_E2MID[0]
+ Tile_X0Y1_E2MID[1] Tile_X0Y1_E2MID[2] Tile_X0Y1_E2MID[3] Tile_X0Y1_E2MID[4] Tile_X0Y1_E2MID[5]
+ Tile_X0Y1_E2MID[6] Tile_X0Y1_E2MID[7] Tile_X0Y1_E6END[0] Tile_X0Y1_E6END[10] Tile_X0Y1_E6END[11]
+ Tile_X0Y1_E6END[1] Tile_X0Y1_E6END[2] Tile_X0Y1_E6END[3] Tile_X0Y1_E6END[4] Tile_X0Y1_E6END[5]
+ Tile_X0Y1_E6END[6] Tile_X0Y1_E6END[7] Tile_X0Y1_E6END[8] Tile_X0Y1_E6END[9] Tile_X0Y1_EE4END[0]
+ Tile_X0Y1_EE4END[10] Tile_X0Y1_EE4END[11] Tile_X0Y1_EE4END[12] Tile_X0Y1_EE4END[13]
+ Tile_X0Y1_EE4END[14] Tile_X0Y1_EE4END[15] Tile_X0Y1_EE4END[1] Tile_X0Y1_EE4END[2]
+ Tile_X0Y1_EE4END[3] Tile_X0Y1_EE4END[4] Tile_X0Y1_EE4END[5] Tile_X0Y1_EE4END[6]
+ Tile_X0Y1_EE4END[7] Tile_X0Y1_EE4END[8] Tile_X0Y1_EE4END[9] Tile_X0Y1_FrameData[0]
+ Tile_X0Y1_FrameData[10] Tile_X0Y1_FrameData[11] Tile_X0Y1_FrameData[12] Tile_X0Y1_FrameData[13]
+ Tile_X0Y1_FrameData[14] Tile_X0Y1_FrameData[15] Tile_X0Y1_FrameData[16] Tile_X0Y1_FrameData[17]
+ Tile_X0Y1_FrameData[18] Tile_X0Y1_FrameData[19] Tile_X0Y1_FrameData[1] Tile_X0Y1_FrameData[20]
+ Tile_X0Y1_FrameData[21] Tile_X0Y1_FrameData[22] Tile_X0Y1_FrameData[23] Tile_X0Y1_FrameData[24]
+ Tile_X0Y1_FrameData[25] Tile_X0Y1_FrameData[26] Tile_X0Y1_FrameData[27] Tile_X0Y1_FrameData[28]
+ Tile_X0Y1_FrameData[29] Tile_X0Y1_FrameData[2] Tile_X0Y1_FrameData[30] Tile_X0Y1_FrameData[31]
+ Tile_X0Y1_FrameData[3] Tile_X0Y1_FrameData[4] Tile_X0Y1_FrameData[5] Tile_X0Y1_FrameData[6]
+ Tile_X0Y1_FrameData[7] Tile_X0Y1_FrameData[8] Tile_X0Y1_FrameData[9] Tile_X0Y1_FrameData_O[0]
+ Tile_X0Y1_FrameData_O[10] Tile_X0Y1_FrameData_O[11] Tile_X0Y1_FrameData_O[12] Tile_X0Y1_FrameData_O[13]
+ Tile_X0Y1_FrameData_O[14] Tile_X0Y1_FrameData_O[15] Tile_X0Y1_FrameData_O[16] Tile_X0Y1_FrameData_O[17]
+ Tile_X0Y1_FrameData_O[18] Tile_X0Y1_FrameData_O[19] Tile_X0Y1_FrameData_O[1] Tile_X0Y1_FrameData_O[20]
+ Tile_X0Y1_FrameData_O[21] Tile_X0Y1_FrameData_O[22] Tile_X0Y1_FrameData_O[23] Tile_X0Y1_FrameData_O[24]
+ Tile_X0Y1_FrameData_O[25] Tile_X0Y1_FrameData_O[26] Tile_X0Y1_FrameData_O[27] Tile_X0Y1_FrameData_O[28]
+ Tile_X0Y1_FrameData_O[29] Tile_X0Y1_FrameData_O[2] Tile_X0Y1_FrameData_O[30] Tile_X0Y1_FrameData_O[31]
+ Tile_X0Y1_FrameData_O[3] Tile_X0Y1_FrameData_O[4] Tile_X0Y1_FrameData_O[5] Tile_X0Y1_FrameData_O[6]
+ Tile_X0Y1_FrameData_O[7] Tile_X0Y1_FrameData_O[8] Tile_X0Y1_FrameData_O[9] Tile_X0Y1_FrameStrobe[0]
+ Tile_X0Y1_FrameStrobe[10] Tile_X0Y1_FrameStrobe[11] Tile_X0Y1_FrameStrobe[12] Tile_X0Y1_FrameStrobe[13]
+ Tile_X0Y1_FrameStrobe[14] Tile_X0Y1_FrameStrobe[15] Tile_X0Y1_FrameStrobe[16] Tile_X0Y1_FrameStrobe[17]
+ Tile_X0Y1_FrameStrobe[18] Tile_X0Y1_FrameStrobe[19] Tile_X0Y1_FrameStrobe[1] Tile_X0Y1_FrameStrobe[2]
+ Tile_X0Y1_FrameStrobe[3] Tile_X0Y1_FrameStrobe[4] Tile_X0Y1_FrameStrobe[5] Tile_X0Y1_FrameStrobe[6]
+ Tile_X0Y1_FrameStrobe[7] Tile_X0Y1_FrameStrobe[8] Tile_X0Y1_FrameStrobe[9] Tile_X0Y1_N1END[0]
+ Tile_X0Y1_N1END[1] Tile_X0Y1_N1END[2] Tile_X0Y1_N1END[3] Tile_X0Y1_N2END[0] Tile_X0Y1_N2END[1]
+ Tile_X0Y1_N2END[2] Tile_X0Y1_N2END[3] Tile_X0Y1_N2END[4] Tile_X0Y1_N2END[5] Tile_X0Y1_N2END[6]
+ Tile_X0Y1_N2END[7] Tile_X0Y1_N2MID[0] Tile_X0Y1_N2MID[1] Tile_X0Y1_N2MID[2] Tile_X0Y1_N2MID[3]
+ Tile_X0Y1_N2MID[4] Tile_X0Y1_N2MID[5] Tile_X0Y1_N2MID[6] Tile_X0Y1_N2MID[7] Tile_X0Y1_N4END[0]
+ Tile_X0Y1_N4END[10] Tile_X0Y1_N4END[11] Tile_X0Y1_N4END[12] Tile_X0Y1_N4END[13]
+ Tile_X0Y1_N4END[14] Tile_X0Y1_N4END[15] Tile_X0Y1_N4END[1] Tile_X0Y1_N4END[2] Tile_X0Y1_N4END[3]
+ Tile_X0Y1_N4END[4] Tile_X0Y1_N4END[5] Tile_X0Y1_N4END[6] Tile_X0Y1_N4END[7] Tile_X0Y1_N4END[8]
+ Tile_X0Y1_N4END[9] Tile_X0Y1_S1BEG[0] Tile_X0Y1_S1BEG[1] Tile_X0Y1_S1BEG[2] Tile_X0Y1_S1BEG[3]
+ Tile_X0Y1_S2BEG[0] Tile_X0Y1_S2BEG[1] Tile_X0Y1_S2BEG[2] Tile_X0Y1_S2BEG[3] Tile_X0Y1_S2BEG[4]
+ Tile_X0Y1_S2BEG[5] Tile_X0Y1_S2BEG[6] Tile_X0Y1_S2BEG[7] Tile_X0Y1_S2BEGb[0] Tile_X0Y1_S2BEGb[1]
+ Tile_X0Y1_S2BEGb[2] Tile_X0Y1_S2BEGb[3] Tile_X0Y1_S2BEGb[4] Tile_X0Y1_S2BEGb[5]
+ Tile_X0Y1_S2BEGb[6] Tile_X0Y1_S2BEGb[7] Tile_X0Y1_S4BEG[0] Tile_X0Y1_S4BEG[10] Tile_X0Y1_S4BEG[11]
+ Tile_X0Y1_S4BEG[12] Tile_X0Y1_S4BEG[13] Tile_X0Y1_S4BEG[14] Tile_X0Y1_S4BEG[15]
+ Tile_X0Y1_S4BEG[1] Tile_X0Y1_S4BEG[2] Tile_X0Y1_S4BEG[3] Tile_X0Y1_S4BEG[4] Tile_X0Y1_S4BEG[5]
+ Tile_X0Y1_S4BEG[6] Tile_X0Y1_S4BEG[7] Tile_X0Y1_S4BEG[8] Tile_X0Y1_S4BEG[9] Tile_X0Y1_UserCLK
+ Tile_X0Y1_W1BEG[0] Tile_X0Y1_W1BEG[1] Tile_X0Y1_W1BEG[2] Tile_X0Y1_W1BEG[3] Tile_X0Y1_W2BEG[0]
+ Tile_X0Y1_W2BEG[1] Tile_X0Y1_W2BEG[2] Tile_X0Y1_W2BEG[3] Tile_X0Y1_W2BEG[4] Tile_X0Y1_W2BEG[5]
+ Tile_X0Y1_W2BEG[6] Tile_X0Y1_W2BEG[7] Tile_X0Y1_W2BEGb[0] Tile_X0Y1_W2BEGb[1] Tile_X0Y1_W2BEGb[2]
+ Tile_X0Y1_W2BEGb[3] Tile_X0Y1_W2BEGb[4] Tile_X0Y1_W2BEGb[5] Tile_X0Y1_W2BEGb[6]
+ Tile_X0Y1_W2BEGb[7] Tile_X0Y1_W6BEG[0] Tile_X0Y1_W6BEG[10] Tile_X0Y1_W6BEG[11] Tile_X0Y1_W6BEG[1]
+ Tile_X0Y1_W6BEG[2] Tile_X0Y1_W6BEG[3] Tile_X0Y1_W6BEG[4] Tile_X0Y1_W6BEG[5] Tile_X0Y1_W6BEG[6]
+ Tile_X0Y1_W6BEG[7] Tile_X0Y1_W6BEG[8] Tile_X0Y1_W6BEG[9] Tile_X0Y1_WW4BEG[0] Tile_X0Y1_WW4BEG[10]
+ Tile_X0Y1_WW4BEG[11] Tile_X0Y1_WW4BEG[12] Tile_X0Y1_WW4BEG[13] Tile_X0Y1_WW4BEG[14]
+ Tile_X0Y1_WW4BEG[15] Tile_X0Y1_WW4BEG[1] Tile_X0Y1_WW4BEG[2] Tile_X0Y1_WW4BEG[3]
+ Tile_X0Y1_WW4BEG[4] Tile_X0Y1_WW4BEG[5] Tile_X0Y1_WW4BEG[6] Tile_X0Y1_WW4BEG[7]
+ Tile_X0Y1_WW4BEG[8] Tile_X0Y1_WW4BEG[9] VGND VPWR
X_0367_ net10 net19 net363 Tile_X0Y0_EF_SRAM_top.Inst_EF_SRAM_top_switch_matrix.J_NS2_BEG6
+ Tile_X0Y0_EF_SRAM_top.Inst_EF_SRAM_top_ConfigMem.Inst_frame6_bit24.Q Tile_X0Y0_EF_SRAM_top.Inst_EF_SRAM_top_ConfigMem.Inst_frame6_bit25.Q
+ VGND VGND VPWR VPWR Tile_X0Y0_EF_SRAM_top.Inst_EF_SRAM_top_switch_matrix.W2BEGb1
+ sky130_fd_sc_hd__mux4_1
X_0298_ Tile_X0Y0_EF_SRAM_top.Inst_EF_SRAM_top_ConfigMem.Inst_frame0_bit30.Q _0070_
+ _0002_ _0069_ VGND VGND VPWR VPWR _0071_ sky130_fd_sc_hd__a2bb2o_1
XTAP_TAPCELL_ROW_65_710 VGND VPWR sky130_fd_sc_hd__tapvpwrvgnd_1
XFILLER_52_29 VPWR VGND VPWR VGND sky130_ef_sc_hd__decap_12
XFILLER_22_144 VPWR VGND VPWR VGND sky130_ef_sc_hd__decap_12
XFILLER_77_15 VPWR VGND VPWR VGND sky130_ef_sc_hd__decap_12
XFILLER_117_55 VGND VGND VPWR VPWR sky130_fd_sc_hd__fill_1
XFILLER_77_317 VGND VGND VPWR VPWR sky130_fd_sc_hd__decap_8
XTAP_TAPCELL_ROW_5_354 VGND VPWR sky130_fd_sc_hd__tapvpwrvgnd_1
XFILLER_92_309 VPWR VGND VPWR VGND sky130_ef_sc_hd__decap_12
XFILLER_45_225 VPWR VGND VPWR VGND sky130_ef_sc_hd__decap_12
XFILLER_26_41 VGND VGND VPWR VPWR sky130_fd_sc_hd__decap_4
XTAP_TAPCELL_ROW_28_489 VGND VPWR sky130_fd_sc_hd__tapvpwrvgnd_1
XFILLER_26_85 VPWR VGND VPWR VGND sky130_ef_sc_hd__decap_12
XFILLER_13_111 VGND VGND VPWR VPWR sky130_fd_sc_hd__fill_1
XTAP_TAPCELL_ROW_71_746 VGND VPWR sky130_fd_sc_hd__tapvpwrvgnd_1
XFILLER_154_333 VGND VGND VPWR VPWR sky130_fd_sc_hd__decap_6
XTAP_TAPCELL_ROW_11_389 VGND VPWR sky130_fd_sc_hd__tapvpwrvgnd_1
XFILLER_54_9 VGND VGND VPWR VPWR sky130_fd_sc_hd__fill_1
XTAP_TAPCELL_ROW_130_1102 VGND VPWR sky130_fd_sc_hd__tapvpwrvgnd_1
XFILLER_107_260 VGND VGND VPWR VPWR sky130_fd_sc_hd__decap_8
XFILLER_3_23 VGND VGND VPWR VPWR sky130_fd_sc_hd__fill_1
X_1270_ net455 net375 VGND VGND VPWR VPWR Tile_X0Y1_EF_SRAM_bot.Inst_EF_SRAM_bot_ConfigMem.Inst_frame8_bit25.Q
+ sky130_fd_sc_hd__dlxtp_1
XFILLER_95_125 VGND VGND VPWR VPWR sky130_fd_sc_hd__decap_4
XFILLER_95_169 VGND VGND VPWR VPWR sky130_fd_sc_hd__decap_4
X_0221_ Tile_X0Y0_EF_SRAM_top.Inst_EF_SRAM_top_ConfigMem.Inst_frame0_bit27.Q VGND
+ VGND VPWR VPWR _0000_ sky130_fd_sc_hd__inv_1
XTAP_TAPCELL_ROW_19_434 VGND VPWR sky130_fd_sc_hd__tapvpwrvgnd_1
XFILLER_51_217 VGND VGND VPWR VPWR sky130_fd_sc_hd__decap_6
XFILLER_149_149 VPWR VGND VPWR VGND sky130_ef_sc_hd__decap_12
X_0985_ net84 net377 VGND VGND VPWR VPWR Tile_X0Y0_EF_SRAM_top.Inst_EF_SRAM_top_ConfigMem.Inst_frame8_bit12.Q
+ sky130_fd_sc_hd__dlxtp_1
Xoutput401 net518 VGND VGND VPWR VPWR Tile_X0Y0_N4BEG[13] sky130_fd_sc_hd__buf_2
Xoutput412 net529 VGND VGND VPWR VPWR Tile_X0Y0_N4BEG[9] sky130_fd_sc_hd__buf_2
Xoutput423 net540 VGND VGND VPWR VPWR Tile_X0Y0_W2BEG[5] sky130_fd_sc_hd__buf_2
Xoutput434 net551 VGND VGND VPWR VPWR Tile_X0Y0_W6BEG[0] sky130_fd_sc_hd__buf_2
Xoutput456 net573 VGND VGND VPWR VPWR Tile_X0Y0_WW4BEG[4] sky130_fd_sc_hd__buf_2
Xoutput445 net562 VGND VGND VPWR VPWR Tile_X0Y0_W6BEG[9] sky130_fd_sc_hd__buf_2
Xoutput467 net584 VGND VGND VPWR VPWR Tile_X0Y1_FrameData_O[14] sky130_fd_sc_hd__buf_2
Xoutput478 net595 VGND VGND VPWR VPWR Tile_X0Y1_FrameData_O[24] sky130_fd_sc_hd__buf_2
X_1537_ Tile_X0Y1_EF_SRAM_bot.Inst_EF_SRAM_bot_switch_matrix.W2BEGb5 VGND VGND VPWR
+ VPWR net664 sky130_fd_sc_hd__buf_1
Xoutput489 net606 VGND VGND VPWR VPWR Tile_X0Y1_FrameData_O[5] sky130_fd_sc_hd__buf_2
X_1468_ Tile_X0Y1_FrameData[16] VGND VGND VPWR VPWR net586 sky130_fd_sc_hd__clkbuf_2
XFILLER_74_309 VPWR VGND VPWR VGND sky130_ef_sc_hd__decap_12
X_1399_ Tile_X0Y0_EF_SRAM_top.Inst_EF_SRAM_top_switch_matrix.N4BEG0 VGND VGND VPWR
+ VPWR net517 sky130_fd_sc_hd__clkbuf_2
X_0419_ net75 net68 net59 Tile_X0Y0_EF_SRAM_top.Inst_EF_SRAM_top_switch_matrix.J_NS4_BEG4
+ Tile_X0Y0_EF_SRAM_top.Inst_EF_SRAM_top_ConfigMem.Inst_frame3_bit6.Q Tile_X0Y0_EF_SRAM_top.Inst_EF_SRAM_top_ConfigMem.Inst_frame3_bit7.Q
+ VGND VGND VPWR VPWR net304 sky130_fd_sc_hd__mux4_1
XFILLER_27_225 VPWR VGND VPWR VGND sky130_ef_sc_hd__decap_12
XTAP_TAPCELL_ROW_2_335 VGND VPWR sky130_fd_sc_hd__tapvpwrvgnd_1
XFILLER_94_180 VPWR VGND VPWR VGND sky130_ef_sc_hd__decap_12
XTAP_TAPCELL_ROW_146_1197 VGND VPWR sky130_fd_sc_hd__tapvpwrvgnd_1
XTAP_TAPCELL_ROW_93_882 VGND VPWR sky130_fd_sc_hd__tapvpwrvgnd_1
XTAP_TAPCELL_ROW_105_950 VGND VPWR sky130_fd_sc_hd__tapvpwrvgnd_1
XFILLER_136_333 VGND VGND VPWR VPWR sky130_fd_sc_hd__decap_6
XFILLER_10_169 VPWR VGND VPWR VGND sky130_ef_sc_hd__decap_12
XFILLER_12_65 VPWR VGND VPWR VGND sky130_ef_sc_hd__decap_12
XFILLER_88_47 VPWR VGND VPWR VGND sky130_ef_sc_hd__decap_12
XFILLER_144_53 VPWR VGND VPWR VGND sky130_ef_sc_hd__decap_12
XFILLER_144_97 VPWR VGND VPWR VGND sky130_ef_sc_hd__decap_12
XFILLER_37_51 VGND VGND VPWR VPWR sky130_fd_sc_hd__decap_4
XFILLER_92_117 VGND VGND VPWR VPWR sky130_fd_sc_hd__fill_2
XFILLER_33_217 VGND VGND VPWR VPWR sky130_fd_sc_hd__decap_6
XTAP_TAPCELL_ROW_111_986 VGND VPWR sky130_fd_sc_hd__tapvpwrvgnd_1
X_0770_ net106 net436 VGND VGND VPWR VPWR Tile_X0Y0_EF_SRAM_top.Inst_EF_SRAM_top_ConfigMem.Inst_frame1_bit3.Q
+ sky130_fd_sc_hd__dlxtp_1
XFILLER_154_141 VPWR VGND VPWR VGND sky130_ef_sc_hd__decap_12
XTAP_TAPCELL_ROW_99_919 VGND VPWR sky130_fd_sc_hd__tapvpwrvgnd_1
XFILLER_68_103 VGND VGND VPWR VPWR sky130_fd_sc_hd__fill_1
X_1322_ net110 VGND VGND VPWR VPWR net354 sky130_fd_sc_hd__clkbuf_1
X_1253_ net190 net383 VGND VGND VPWR VPWR Tile_X0Y1_EF_SRAM_bot.Inst_EF_SRAM_bot_ConfigMem.Inst_frame7_bit10.Q
+ sky130_fd_sc_hd__dlxtp_1
XFILLER_56_309 VPWR VGND VPWR VGND sky130_ef_sc_hd__decap_12
X_1184_ net465 net398 VGND VGND VPWR VPWR Tile_X0Y1_EF_SRAM_bot.Inst_EF_SRAM_bot_ConfigMem.Inst_frame5_bit15.Q
+ sky130_fd_sc_hd__dlxtp_1
XFILLER_91_161 VGND VGND VPWR VPWR sky130_fd_sc_hd__fill_1
XTAP_TAPCELL_ROW_90_863 VGND VPWR sky130_fd_sc_hd__tapvpwrvgnd_1
XFILLER_32_261 VGND VGND VPWR VPWR sky130_fd_sc_hd__decap_3
X_0968_ net469 net377 VGND VGND VPWR VPWR Tile_X0Y0_EF_SRAM_top.Inst_EF_SRAM_top_ConfigMem.Inst_frame8_bit29.Q
+ sky130_fd_sc_hd__dlxtp_1
X_0899_ net103 net405 VGND VGND VPWR VPWR Tile_X0Y0_EF_SRAM_top.Inst_EF_SRAM_top_ConfigMem.Inst_frame5_bit2.Q
+ sky130_fd_sc_hd__dlxtp_1
Xoutput253 net253 VGND VGND VPWR VPWR AD_SRAM5 sky130_fd_sc_hd__buf_2
Xoutput286 net286 VGND VGND VPWR VPWR BEN_SRAM6 sky130_fd_sc_hd__buf_2
Xoutput264 net264 VGND VGND VPWR VPWR BEN_SRAM14 sky130_fd_sc_hd__buf_2
Xoutput275 net275 VGND VGND VPWR VPWR BEN_SRAM24 sky130_fd_sc_hd__buf_2
Xoutput297 net297 VGND VGND VPWR VPWR DI_SRAM14 sky130_fd_sc_hd__buf_2
XFILLER_59_169 VGND VGND VPWR VPWR sky130_fd_sc_hd__decap_8
XFILLER_55_320 VGND VGND VPWR VPWR sky130_fd_sc_hd__decap_8
XFILLER_74_27 VGND VGND VPWR VPWR sky130_fd_sc_hd__fill_1
XFILLER_130_11 VPWR VGND VPWR VGND sky130_ef_sc_hd__decap_12
XTAP_TAPCELL_ROW_38_551 VGND VPWR sky130_fd_sc_hd__tapvpwrvgnd_1
XFILLER_130_77 VGND VGND VPWR VPWR sky130_fd_sc_hd__decap_6
XFILLER_90_15 VPWR VGND VPWR VGND sky130_ef_sc_hd__decap_12
XFILLER_90_59 VPWR VGND VPWR VGND sky130_ef_sc_hd__decap_12
XFILLER_139_42 VGND VGND VPWR VPWR sky130_fd_sc_hd__decap_3
XPHY_EDGE_ROW_137_Right_137 VGND VGND VPWR VPWR sky130_fd_sc_hd__decap_3
XPHY_EDGE_ROW_122_Left_279 VGND VGND VPWR VPWR sky130_fd_sc_hd__decap_3
XTAP_TAPCELL_ROW_21_451 VGND VPWR sky130_fd_sc_hd__tapvpwrvgnd_1
XFILLER_136_141 VPWR VGND VPWR VGND sky130_ef_sc_hd__decap_12
XTAP_TAPCELL_ROW_118_1030 VGND VPWR sky130_fd_sc_hd__tapvpwrvgnd_1
XFILLER_99_57 VGND VGND VPWR VPWR sky130_fd_sc_hd__decap_6
XFILLER_151_122 VPWR VGND VPWR VGND sky130_ef_sc_hd__decap_12
XFILLER_2_121 VGND VGND VPWR VPWR sky130_fd_sc_hd__decap_6
XFILLER_151_166 VGND VGND VPWR VPWR sky130_fd_sc_hd__fill_2
XFILLER_2_165 VPWR VGND VPWR VGND sky130_ef_sc_hd__decap_12
XPHY_EDGE_ROW_131_Left_288 VGND VGND VPWR VPWR sky130_fd_sc_hd__decap_3
XFILLER_0_57 VGND VGND VPWR VPWR sky130_fd_sc_hd__decap_3
XFILLER_80_109 VPWR VGND VPWR VGND sky130_ef_sc_hd__decap_12
XFILLER_9_11 VPWR VGND VPWR VGND sky130_ef_sc_hd__decap_12
XTAP_TAPCELL_ROW_44_587 VGND VPWR sky130_fd_sc_hd__tapvpwrvgnd_1
XPHY_EDGE_ROW_140_Left_297 VGND VGND VPWR VPWR sky130_fd_sc_hd__decap_3
XFILLER_9_55 VGND VGND VPWR VPWR sky130_fd_sc_hd__fill_1
XFILLER_80_70 VGND VGND VPWR VPWR sky130_fd_sc_hd__fill_1
X_0822_ net87 net420 VGND VGND VPWR VPWR Tile_X0Y0_EF_SRAM_top.Inst_EF_SRAM_top_ConfigMem.Inst_frame3_bit15.Q
+ sky130_fd_sc_hd__dlxtp_1
XPHY_EDGE_ROW_104_Right_104 VGND VGND VPWR VPWR sky130_fd_sc_hd__decap_3
XTAP_TAPCELL_ROW_136_1141 VGND VPWR sky130_fd_sc_hd__tapvpwrvgnd_1
XFILLER_127_141 VPWR VGND VPWR VGND sky130_ef_sc_hd__decap_12
X_0753_ net93 net437 VGND VGND VPWR VPWR Tile_X0Y0_EF_SRAM_top.Inst_EF_SRAM_top_ConfigMem.Inst_frame1_bit20.Q
+ sky130_fd_sc_hd__dlxtp_1
XFILLER_115_325 VGND VGND VPWR VPWR sky130_fd_sc_hd__fill_1
X_0684_ _0052_ Tile_X0Y1_EF_SRAM_bot.Inst_EF_SRAM_bot_ConfigMem.Inst_frame1_bit2.Q
+ Tile_X0Y0_EF_SRAM_top.Inst_EF_SRAM_top_switch_matrix.S2BEG0 _0196_ VGND VGND VPWR
+ VPWR _0197_ sky130_fd_sc_hd__o31a_1
XFILLER_142_177 VPWR VGND VPWR VGND sky130_ef_sc_hd__decap_12
X_1305_ net458 net370 VGND VGND VPWR VPWR Tile_X0Y1_EF_SRAM_bot.Inst_EF_SRAM_bot_ConfigMem.Inst_frame9_bit22.Q
+ sky130_fd_sc_hd__dlxtp_1
XFILLER_96_253 VPWR VGND VPWR VGND sky130_ef_sc_hd__decap_12
X_1236_ net453 net382 VGND VGND VPWR VPWR Tile_X0Y1_EF_SRAM_bot.Inst_EF_SRAM_bot_ConfigMem.Inst_frame7_bit27.Q
+ sky130_fd_sc_hd__dlxtp_1
X_1167_ net189 net408 VGND VGND VPWR VPWR Tile_X0Y1_EF_SRAM_bot.Inst_EF_SRAM_bot_ConfigMem.Inst_frame4_bit0.Q
+ sky130_fd_sc_hd__dlxtp_1
XTAP_TAPCELL_ROW_143_1178 VGND VPWR sky130_fd_sc_hd__tapvpwrvgnd_1
XFILLER_64_183 VGND VGND VPWR VPWR sky130_fd_sc_hd__fill_1
XTAP_TAPCELL_ROW_35_532 VGND VPWR sky130_fd_sc_hd__tapvpwrvgnd_1
X_1098_ net214 net425 VGND VGND VPWR VPWR Tile_X0Y1_EF_SRAM_bot.Inst_EF_SRAM_bot_ConfigMem.Inst_frame2_bit5.Q
+ sky130_fd_sc_hd__dlxtp_1
XFILLER_20_253 VPWR VGND VPWR VGND sky130_ef_sc_hd__decap_12
XFILLER_60_29 VPWR VGND VPWR VGND sky130_ef_sc_hd__decap_12
XFILLER_118_141 VGND VGND VPWR VPWR sky130_fd_sc_hd__decap_8
XFILLER_121_306 VPWR VGND VPWR VGND sky130_ef_sc_hd__decap_12
XFILLER_125_99 VPWR VGND VPWR VGND sky130_ef_sc_hd__decap_12
XFILLER_85_37 VGND VGND VPWR VPWR sky130_fd_sc_hd__decap_4
XFILLER_87_275 VGND VGND VPWR VPWR sky130_fd_sc_hd__decap_4
XFILLER_18_53 VPWR VGND VPWR VGND sky130_ef_sc_hd__decap_12
XTAP_TAPCELL_ROW_58_668 VGND VPWR sky130_fd_sc_hd__tapvpwrvgnd_1
XFILLER_43_312 VGND VGND VPWR VPWR sky130_fd_sc_hd__decap_8
XFILLER_70_197 VPWR VGND VPWR VGND sky130_ef_sc_hd__decap_12
XTAP_TAPCELL_ROW_41_568 VGND VPWR sky130_fd_sc_hd__tapvpwrvgnd_1
XFILLER_156_269 VGND VGND VPWR VPWR sky130_fd_sc_hd__fill_2
XFILLER_7_268 VPWR VGND VPWR VGND sky130_ef_sc_hd__decap_12
XFILLER_109_163 VGND VGND VPWR VPWR sky130_fd_sc_hd__decap_4
XFILLER_124_133 VGND VGND VPWR VPWR sky130_fd_sc_hd__fill_1
XFILLER_109_196 VGND VGND VPWR VPWR sky130_fd_sc_hd__decap_4
XFILLER_78_253 VPWR VGND VPWR VGND sky130_ef_sc_hd__decap_12
X_1021_ net462 net440 VGND VGND VPWR VPWR Tile_X0Y1_EF_SRAM_bot.Inst_EF_SRAM_bot_ConfigMem.Inst_frame0_bit18.Q
+ sky130_fd_sc_hd__dlxtp_1
XFILLER_75_81 VPWR VGND VPWR VGND sky130_ef_sc_hd__decap_12
XFILLER_93_267 VGND VGND VPWR VPWR sky130_fd_sc_hd__fill_1
XFILLER_34_301 VGND VGND VPWR VPWR sky130_fd_sc_hd__decap_6
XTAP_TAPCELL_ROW_32_513 VGND VPWR sky130_fd_sc_hd__tapvpwrvgnd_1
XFILLER_147_225 VPWR VGND VPWR VGND sky130_ef_sc_hd__decap_12
X_0805_ net81 net428 VGND VGND VPWR VPWR Tile_X0Y0_EF_SRAM_top.Inst_EF_SRAM_top_ConfigMem.Inst_frame2_bit0.Q
+ sky130_fd_sc_hd__dlxtp_1
X_0736_ net108 net446 VGND VGND VPWR VPWR Tile_X0Y0_EF_SRAM_top.Inst_EF_SRAM_top_ConfigMem.Inst_frame0_bit5.Q
+ sky130_fd_sc_hd__dlxtp_1
X_0667_ _0044_ _0182_ Tile_X0Y1_EF_SRAM_bot.Inst_EF_SRAM_bot_ConfigMem.Inst_frame7_bit15.Q