*SPEF "ieee 1481-1999"
*DESIGN "N_term_single"
*DATE "16:53:02 Thursday April 03, 2025"
*VENDOR "The OpenROAD Project"
*PROGRAM "OpenROAD"
*VERSION "87af90f72f3f9be1fdfa1d886f0dd8d8b8f34694"
*DESIGN_FLOW "NAME_SCOPE LOCAL" "PIN_CAP NONE"
*DIVIDER /
*DELIMITER :
*BUS_DELIMITER []
*T_UNIT 1 NS
*C_UNIT 1 PF
*R_UNIT 1 OHM
*L_UNIT 1 HENRY

*NAME_MAP
*1 Ci
*2 FrameData[0]
*3 FrameData[10]
*4 FrameData[11]
*5 FrameData[12]
*6 FrameData[13]
*7 FrameData[14]
*8 FrameData[15]
*9 FrameData[16]
*10 FrameData[17]
*11 FrameData[18]
*12 FrameData[19]
*13 FrameData[1]
*14 FrameData[20]
*15 FrameData[21]
*16 FrameData[22]
*17 FrameData[23]
*18 FrameData[24]
*19 FrameData[25]
*20 FrameData[26]
*21 FrameData[27]
*22 FrameData[28]
*23 FrameData[29]
*24 FrameData[2]
*25 FrameData[30]
*26 FrameData[31]
*27 FrameData[3]
*28 FrameData[4]
*29 FrameData[5]
*30 FrameData[6]
*31 FrameData[7]
*32 FrameData[8]
*33 FrameData[9]
*34 FrameData_O[0]
*35 FrameData_O[10]
*36 FrameData_O[11]
*37 FrameData_O[12]
*38 FrameData_O[13]
*39 FrameData_O[14]
*40 FrameData_O[15]
*41 FrameData_O[16]
*42 FrameData_O[17]
*43 FrameData_O[18]
*44 FrameData_O[19]
*45 FrameData_O[1]
*46 FrameData_O[20]
*47 FrameData_O[21]
*48 FrameData_O[22]
*49 FrameData_O[23]
*50 FrameData_O[24]
*51 FrameData_O[25]
*52 FrameData_O[26]
*53 FrameData_O[27]
*54 FrameData_O[28]
*55 FrameData_O[29]
*56 FrameData_O[2]
*57 FrameData_O[30]
*58 FrameData_O[31]
*59 FrameData_O[3]
*60 FrameData_O[4]
*61 FrameData_O[5]
*62 FrameData_O[6]
*63 FrameData_O[7]
*64 FrameData_O[8]
*65 FrameData_O[9]
*66 FrameStrobe[0]
*67 FrameStrobe[10]
*68 FrameStrobe[11]
*69 FrameStrobe[12]
*70 FrameStrobe[13]
*71 FrameStrobe[14]
*72 FrameStrobe[15]
*73 FrameStrobe[16]
*74 FrameStrobe[17]
*75 FrameStrobe[18]
*76 FrameStrobe[19]
*77 FrameStrobe[1]
*78 FrameStrobe[2]
*79 FrameStrobe[3]
*80 FrameStrobe[4]
*81 FrameStrobe[5]
*82 FrameStrobe[6]
*83 FrameStrobe[7]
*84 FrameStrobe[8]
*85 FrameStrobe[9]
*86 FrameStrobe_O[0]
*87 FrameStrobe_O[10]
*88 FrameStrobe_O[11]
*89 FrameStrobe_O[12]
*90 FrameStrobe_O[13]
*91 FrameStrobe_O[14]
*92 FrameStrobe_O[15]
*93 FrameStrobe_O[16]
*94 FrameStrobe_O[17]
*95 FrameStrobe_O[18]
*96 FrameStrobe_O[19]
*97 FrameStrobe_O[1]
*98 FrameStrobe_O[2]
*99 FrameStrobe_O[3]
*100 FrameStrobe_O[4]
*101 FrameStrobe_O[5]
*102 FrameStrobe_O[6]
*103 FrameStrobe_O[7]
*104 FrameStrobe_O[8]
*105 FrameStrobe_O[9]
*106 N1END[0]
*107 N1END[1]
*108 N1END[2]
*109 N1END[3]
*110 N2END[0]
*111 N2END[1]
*112 N2END[2]
*113 N2END[3]
*114 N2END[4]
*115 N2END[5]
*116 N2END[6]
*117 N2END[7]
*118 N2MID[0]
*119 N2MID[1]
*120 N2MID[2]
*121 N2MID[3]
*122 N2MID[4]
*123 N2MID[5]
*124 N2MID[6]
*125 N2MID[7]
*126 N4END[0]
*127 N4END[10]
*128 N4END[11]
*129 N4END[12]
*130 N4END[13]
*131 N4END[14]
*132 N4END[15]
*133 N4END[1]
*134 N4END[2]
*135 N4END[3]
*136 N4END[4]
*137 N4END[5]
*138 N4END[6]
*139 N4END[7]
*140 N4END[8]
*141 N4END[9]
*142 NN4END[0]
*143 NN4END[10]
*144 NN4END[11]
*145 NN4END[12]
*146 NN4END[13]
*147 NN4END[14]
*148 NN4END[15]
*149 NN4END[1]
*150 NN4END[2]
*151 NN4END[3]
*152 NN4END[4]
*153 NN4END[5]
*154 NN4END[6]
*155 NN4END[7]
*156 NN4END[8]
*157 NN4END[9]
*158 S1BEG[0]
*159 S1BEG[1]
*160 S1BEG[2]
*161 S1BEG[3]
*162 S2BEG[0]
*163 S2BEG[1]
*164 S2BEG[2]
*165 S2BEG[3]
*166 S2BEG[4]
*167 S2BEG[5]
*168 S2BEG[6]
*169 S2BEG[7]
*170 S2BEGb[0]
*171 S2BEGb[1]
*172 S2BEGb[2]
*173 S2BEGb[3]
*174 S2BEGb[4]
*175 S2BEGb[5]
*176 S2BEGb[6]
*177 S2BEGb[7]
*178 S4BEG[0]
*179 S4BEG[10]
*180 S4BEG[11]
*181 S4BEG[12]
*182 S4BEG[13]
*183 S4BEG[14]
*184 S4BEG[15]
*185 S4BEG[1]
*186 S4BEG[2]
*187 S4BEG[3]
*188 S4BEG[4]
*189 S4BEG[5]
*190 S4BEG[6]
*191 S4BEG[7]
*192 S4BEG[8]
*193 S4BEG[9]
*194 SS4BEG[0]
*195 SS4BEG[10]
*196 SS4BEG[11]
*197 SS4BEG[12]
*198 SS4BEG[13]
*199 SS4BEG[14]
*200 SS4BEG[15]
*201 SS4BEG[1]
*202 SS4BEG[2]
*203 SS4BEG[3]
*204 SS4BEG[4]
*205 SS4BEG[5]
*206 SS4BEG[6]
*207 SS4BEG[7]
*208 SS4BEG[8]
*209 SS4BEG[9]
*210 UserCLK
*211 UserCLKo
*214 net1
*215 net10
*216 net100
*217 net101
*218 net102
*219 net103
*220 net104
*221 net105
*222 net11
*223 net12
*224 net13
*225 net14
*226 net15
*227 net16
*228 net17
*229 net18
*230 net19
*231 net2
*232 net20
*233 net21
*234 net22
*235 net23
*236 net24
*237 net25
*238 net26
*239 net27
*240 net28
*241 net29
*242 net3
*243 net30
*244 net31
*245 net32
*246 net33
*247 net34
*248 net35
*249 net36
*250 net37
*251 net38
*252 net39
*253 net4
*254 net40
*255 net41
*256 net42
*257 net43
*258 net44
*259 net45
*260 net46
*261 net47
*262 net48
*263 net49
*264 net5
*265 net50
*266 net51
*267 net52
*268 net53
*269 net54
*270 net55
*271 net56
*272 net57
*273 net58
*274 net59
*275 net6
*276 net60
*277 net61
*278 net62
*279 net63
*280 net64
*281 net65
*282 net66
*283 net67
*284 net68
*285 net69
*286 net7
*287 net70
*288 net71
*289 net72
*290 net73
*291 net74
*292 net75
*293 net76
*294 net77
*295 net78
*296 net79
*297 net8
*298 net80
*299 net81
*300 net82
*301 net83
*302 net84
*303 net85
*304 net86
*305 net87
*306 net88
*307 net89
*308 net9
*309 net90
*310 net91
*311 net92
*312 net93
*313 net94
*314 net95
*315 net96
*316 net97
*317 net98
*318 net99
*319 ANTENNA_1
*320 ANTENNA_10
*321 ANTENNA_11
*322 ANTENNA_12
*323 ANTENNA_13
*324 ANTENNA_14
*325 ANTENNA_15
*326 ANTENNA_16
*327 ANTENNA_17
*328 ANTENNA_18
*329 ANTENNA_19
*330 ANTENNA_2
*331 ANTENNA_20
*332 ANTENNA_21
*333 ANTENNA_22
*334 ANTENNA_23
*335 ANTENNA_24
*336 ANTENNA_25
*337 ANTENNA_3
*338 ANTENNA_4
*339 ANTENNA_5
*340 ANTENNA_6
*341 ANTENNA_7
*342 ANTENNA_8
*343 ANTENNA_9
*344 FILLER_0_0
*345 FILLER_0_105
*346 FILLER_0_112
*347 FILLER_0_119
*348 FILLER_0_126
*349 FILLER_0_133
*350 FILLER_0_14
*351 FILLER_0_140
*352 FILLER_0_147
*353 FILLER_0_154
*354 FILLER_0_161
*355 FILLER_0_168
*356 FILLER_0_175
*357 FILLER_0_182
*358 FILLER_0_189
*359 FILLER_0_196
*360 FILLER_0_203
*361 FILLER_0_21
*362 FILLER_0_28
*363 FILLER_0_321
*364 FILLER_0_328
*365 FILLER_0_335
*366 FILLER_0_342
*367 FILLER_0_349
*368 FILLER_0_35
*369 FILLER_0_356
*370 FILLER_0_363
*371 FILLER_0_370
*372 FILLER_0_377
*373 FILLER_0_384
*374 FILLER_0_391
*375 FILLER_0_398
*376 FILLER_0_405
*377 FILLER_0_412
*378 FILLER_0_419
*379 FILLER_0_42
*380 FILLER_0_426
*381 FILLER_0_433
*382 FILLER_0_440
*383 FILLER_0_442
*384 FILLER_0_49
*385 FILLER_0_56
*386 FILLER_0_63
*387 FILLER_0_7
*388 FILLER_0_70
*389 FILLER_0_77
*390 FILLER_0_84
*391 FILLER_0_91
*392 FILLER_0_98
*393 FILLER_10_0
*394 FILLER_10_105
*395 FILLER_10_112
*396 FILLER_10_119
*397 FILLER_10_126
*398 FILLER_10_133
*399 FILLER_10_14
*400 FILLER_10_140
*401 FILLER_10_147
*402 FILLER_10_154
*403 FILLER_10_161
*404 FILLER_10_168
*405 FILLER_10_175
*406 FILLER_10_182
*407 FILLER_10_189
*408 FILLER_10_196
*409 FILLER_10_203
*410 FILLER_10_21
*411 FILLER_10_210
*412 FILLER_10_217
*413 FILLER_10_224
*414 FILLER_10_231
*415 FILLER_10_238
*416 FILLER_10_245
*417 FILLER_10_252
*418 FILLER_10_259
*419 FILLER_10_266
*420 FILLER_10_273
*421 FILLER_10_28
*422 FILLER_10_280
*423 FILLER_10_287
*424 FILLER_10_294
*425 FILLER_10_301
*426 FILLER_10_308
*427 FILLER_10_315
*428 FILLER_10_322
*429 FILLER_10_329
*430 FILLER_10_336
*431 FILLER_10_343
*432 FILLER_10_35
*433 FILLER_10_350
*434 FILLER_10_357
*435 FILLER_10_364
*436 FILLER_10_371
*437 FILLER_10_378
*438 FILLER_10_385
*439 FILLER_10_392
*440 FILLER_10_399
*441 FILLER_10_406
*442 FILLER_10_413
*443 FILLER_10_42
*444 FILLER_10_420
*445 FILLER_10_427
*446 FILLER_10_434
*447 FILLER_10_441
*448 FILLER_10_49
*449 FILLER_10_56
*450 FILLER_10_63
*451 FILLER_10_7
*452 FILLER_10_70
*453 FILLER_10_77
*454 FILLER_10_84
*455 FILLER_10_91
*456 FILLER_10_98
*457 FILLER_11_0
*458 FILLER_11_101
*459 FILLER_11_108
*460 FILLER_11_115
*461 FILLER_11_123
*462 FILLER_11_13
*463 FILLER_11_130
*464 FILLER_11_137
*465 FILLER_11_145
*466 FILLER_11_152
*467 FILLER_11_159
*468 FILLER_11_167
*469 FILLER_11_174
*470 FILLER_11_181
*471 FILLER_11_189
*472 FILLER_11_196
*473 FILLER_11_20
*474 FILLER_11_203
*475 FILLER_11_211
*476 FILLER_11_218
*477 FILLER_11_225
*478 FILLER_11_233
*479 FILLER_11_240
*480 FILLER_11_247
*481 FILLER_11_255
*482 FILLER_11_262
*483 FILLER_11_269
*484 FILLER_11_27
*485 FILLER_11_277
*486 FILLER_11_284
*487 FILLER_11_291
*488 FILLER_11_299
*489 FILLER_11_306
*490 FILLER_11_313
*491 FILLER_11_321
*492 FILLER_11_328
*493 FILLER_11_335
*494 FILLER_11_343
*495 FILLER_11_35
*496 FILLER_11_350
*497 FILLER_11_357
*498 FILLER_11_365
*499 FILLER_11_372
*500 FILLER_11_379
*501 FILLER_11_387
*502 FILLER_11_394
*503 FILLER_11_401
*504 FILLER_11_409
*505 FILLER_11_416
*506 FILLER_11_42
*507 FILLER_11_423
*508 FILLER_11_431
*509 FILLER_11_435
*510 FILLER_11_453
*511 FILLER_11_49
*512 FILLER_11_57
*513 FILLER_11_64
*514 FILLER_11_7
*515 FILLER_11_71
*516 FILLER_11_79
*517 FILLER_11_86
*518 FILLER_11_93
*519 FILLER_1_0
*520 FILLER_1_105
*521 FILLER_1_112
*522 FILLER_1_119
*523 FILLER_1_126
*524 FILLER_1_133
*525 FILLER_1_14
*526 FILLER_1_140
*527 FILLER_1_147
*528 FILLER_1_154
*529 FILLER_1_161
*530 FILLER_1_168
*531 FILLER_1_175
*532 FILLER_1_182
*533 FILLER_1_189
*534 FILLER_1_196
*535 FILLER_1_203
*536 FILLER_1_207
*537 FILLER_1_21
*538 FILLER_1_237
*539 FILLER_1_244
*540 FILLER_1_28
*541 FILLER_1_315
*542 FILLER_1_322
*543 FILLER_1_329
*544 FILLER_1_336
*545 FILLER_1_343
*546 FILLER_1_35
*547 FILLER_1_356
*548 FILLER_1_363
*549 FILLER_1_370
*550 FILLER_1_377
*551 FILLER_1_384
*552 FILLER_1_391
*553 FILLER_1_398
*554 FILLER_1_405
*555 FILLER_1_412
*556 FILLER_1_419
*557 FILLER_1_42
*558 FILLER_1_426
*559 FILLER_1_433
*560 FILLER_1_440
*561 FILLER_1_49
*562 FILLER_1_56
*563 FILLER_1_63
*564 FILLER_1_7
*565 FILLER_1_70
*566 FILLER_1_77
*567 FILLER_1_84
*568 FILLER_1_91
*569 FILLER_1_98
*570 FILLER_2_0
*571 FILLER_2_105
*572 FILLER_2_112
*573 FILLER_2_119
*574 FILLER_2_126
*575 FILLER_2_133
*576 FILLER_2_14
*577 FILLER_2_140
*578 FILLER_2_147
*579 FILLER_2_154
*580 FILLER_2_161
*581 FILLER_2_168
*582 FILLER_2_175
*583 FILLER_2_182
*584 FILLER_2_189
*585 FILLER_2_196
*586 FILLER_2_203
*587 FILLER_2_21
*588 FILLER_2_210
*589 FILLER_2_217
*590 FILLER_2_224
*591 FILLER_2_231
*592 FILLER_2_238
*593 FILLER_2_245
*594 FILLER_2_252
*595 FILLER_2_256
*596 FILLER_2_28
*597 FILLER_2_285
*598 FILLER_2_292
*599 FILLER_2_299
*600 FILLER_2_304
*601 FILLER_2_306
*602 FILLER_2_311
*603 FILLER_2_318
*604 FILLER_2_325
*605 FILLER_2_332
*606 FILLER_2_339
*607 FILLER_2_346
*608 FILLER_2_35
*609 FILLER_2_354
*610 FILLER_2_361
*611 FILLER_2_372
*612 FILLER_2_379
*613 FILLER_2_381
*614 FILLER_2_386
*615 FILLER_2_393
*616 FILLER_2_400
*617 FILLER_2_407
*618 FILLER_2_414
*619 FILLER_2_42
*620 FILLER_2_421
*621 FILLER_2_428
*622 FILLER_2_435
*623 FILLER_2_442
*624 FILLER_2_449
*625 FILLER_2_49
*626 FILLER_2_56
*627 FILLER_2_63
*628 FILLER_2_7
*629 FILLER_2_70
*630 FILLER_2_77
*631 FILLER_2_84
*632 FILLER_2_91
*633 FILLER_2_98
*634 FILLER_3_0
*635 FILLER_3_100
*636 FILLER_3_107
*637 FILLER_3_114
*638 FILLER_3_121
*639 FILLER_3_128
*640 FILLER_3_135
*641 FILLER_3_14
*642 FILLER_3_142
*643 FILLER_3_149
*644 FILLER_3_156
*645 FILLER_3_163
*646 FILLER_3_170
*647 FILLER_3_177
*648 FILLER_3_184
*649 FILLER_3_191
*650 FILLER_3_198
*651 FILLER_3_205
*652 FILLER_3_21
*653 FILLER_3_212
*654 FILLER_3_219
*655 FILLER_3_226
*656 FILLER_3_233
*657 FILLER_3_241
*658 FILLER_3_246
*659 FILLER_3_250
*660 FILLER_3_255
*661 FILLER_3_259
*662 FILLER_3_264
*663 FILLER_3_271
*664 FILLER_3_279
*665 FILLER_3_28
*666 FILLER_3_286
*667 FILLER_3_293
*668 FILLER_3_300
*669 FILLER_3_307
*670 FILLER_3_314
*671 FILLER_3_321
*672 FILLER_3_325
*673 FILLER_3_331
*674 FILLER_3_338
*675 FILLER_3_345
*676 FILLER_3_35
*677 FILLER_3_352
*678 FILLER_3_359
*679 FILLER_3_366
*680 FILLER_3_373
*681 FILLER_3_380
*682 FILLER_3_387
*683 FILLER_3_394
*684 FILLER_3_396
*685 FILLER_3_400
*686 FILLER_3_407
*687 FILLER_3_42
*688 FILLER_3_436
*689 FILLER_3_443
*690 FILLER_3_49
*691 FILLER_3_56
*692 FILLER_3_60
*693 FILLER_3_65
*694 FILLER_3_7
*695 FILLER_3_72
*696 FILLER_3_79
*697 FILLER_3_86
*698 FILLER_3_93
*699 FILLER_4_0
*700 FILLER_4_106
*701 FILLER_4_113
*702 FILLER_4_120
*703 FILLER_4_127
*704 FILLER_4_134
*705 FILLER_4_14
*706 FILLER_4_141
*707 FILLER_4_148
*708 FILLER_4_155
*709 FILLER_4_162
*710 FILLER_4_169
*711 FILLER_4_176
*712 FILLER_4_183
*713 FILLER_4_190
*714 FILLER_4_197
*715 FILLER_4_204
*716 FILLER_4_21
*717 FILLER_4_211
*718 FILLER_4_215
*719 FILLER_4_225
*720 FILLER_4_230
*721 FILLER_4_235
*722 FILLER_4_242
*723 FILLER_4_249
*724 FILLER_4_256
*725 FILLER_4_263
*726 FILLER_4_271
*727 FILLER_4_275
*728 FILLER_4_28
*729 FILLER_4_288
*730 FILLER_4_295
*731 FILLER_4_302
*732 FILLER_4_309
*733 FILLER_4_316
*734 FILLER_4_323
*735 FILLER_4_330
*736 FILLER_4_337
*737 FILLER_4_341
*738 FILLER_4_349
*739 FILLER_4_35
*740 FILLER_4_356
*741 FILLER_4_363
*742 FILLER_4_370
*743 FILLER_4_377
*744 FILLER_4_379
*745 FILLER_4_383
*746 FILLER_4_404
*747 FILLER_4_408
*748 FILLER_4_42
*749 FILLER_4_426
*750 FILLER_4_433
*751 FILLER_4_440
*752 FILLER_4_447
*753 FILLER_4_49
*754 FILLER_4_56
*755 FILLER_4_60
*756 FILLER_4_7
*757 FILLER_4_70
*758 FILLER_4_78
*759 FILLER_4_85
*760 FILLER_4_92
*761 FILLER_4_99
*762 FILLER_5_0
*763 FILLER_5_104
*764 FILLER_5_106
*765 FILLER_5_111
*766 FILLER_5_119
*767 FILLER_5_126
*768 FILLER_5_132
*769 FILLER_5_139
*770 FILLER_5_14
*771 FILLER_5_146
*772 FILLER_5_153
*773 FILLER_5_160
*774 FILLER_5_167
*775 FILLER_5_174
*776 FILLER_5_181
*777 FILLER_5_188
*778 FILLER_5_195
*779 FILLER_5_202
*780 FILLER_5_21
*781 FILLER_5_218
*782 FILLER_5_225
*783 FILLER_5_232
*784 FILLER_5_239
*785 FILLER_5_246
*786 FILLER_5_253
*787 FILLER_5_260
*788 FILLER_5_267
*789 FILLER_5_274
*790 FILLER_5_28
*791 FILLER_5_281
*792 FILLER_5_288
*793 FILLER_5_295
*794 FILLER_5_302
*795 FILLER_5_309
*796 FILLER_5_316
*797 FILLER_5_323
*798 FILLER_5_330
*799 FILLER_5_337
*800 FILLER_5_341
*801 FILLER_5_347
*802 FILLER_5_35
*803 FILLER_5_354
*804 FILLER_5_361
*805 FILLER_5_368
*806 FILLER_5_376
*807 FILLER_5_380
*808 FILLER_5_392
*809 FILLER_5_399
*810 FILLER_5_406
*811 FILLER_5_413
*812 FILLER_5_42
*813 FILLER_5_420
*814 FILLER_5_427
*815 FILLER_5_434
*816 FILLER_5_441
*817 FILLER_5_448
*818 FILLER_5_450
*819 FILLER_5_49
*820 FILLER_5_56
*821 FILLER_5_61
*822 FILLER_5_65
*823 FILLER_5_7
*824 FILLER_5_70
*825 FILLER_5_77
*826 FILLER_5_82
*827 FILLER_5_89
*828 FILLER_5_94
*829 FILLER_5_98
*830 FILLER_6_0
*831 FILLER_6_104
*832 FILLER_6_111
*833 FILLER_6_118
*834 FILLER_6_125
*835 FILLER_6_132
*836 FILLER_6_139
*837 FILLER_6_14
*838 FILLER_6_146
*839 FILLER_6_153
*840 FILLER_6_160
*841 FILLER_6_167
*842 FILLER_6_174
*843 FILLER_6_181
*844 FILLER_6_188
*845 FILLER_6_199
*846 FILLER_6_204
*847 FILLER_6_21
*848 FILLER_6_211
*849 FILLER_6_218
*850 FILLER_6_225
*851 FILLER_6_232
*852 FILLER_6_239
*853 FILLER_6_246
*854 FILLER_6_253
*855 FILLER_6_260
*856 FILLER_6_267
*857 FILLER_6_274
*858 FILLER_6_278
*859 FILLER_6_28
*860 FILLER_6_284
*861 FILLER_6_291
*862 FILLER_6_298
*863 FILLER_6_305
*864 FILLER_6_312
*865 FILLER_6_319
*866 FILLER_6_326
*867 FILLER_6_337
*868 FILLER_6_344
*869 FILLER_6_35
*870 FILLER_6_351
*871 FILLER_6_358
*872 FILLER_6_365
*873 FILLER_6_372
*874 FILLER_6_379
*875 FILLER_6_386
*876 FILLER_6_393
*877 FILLER_6_400
*878 FILLER_6_407
*879 FILLER_6_414
*880 FILLER_6_42
*881 FILLER_6_421
*882 FILLER_6_428
*883 FILLER_6_435
*884 FILLER_6_442
*885 FILLER_6_449
*886 FILLER_6_49
*887 FILLER_6_56
*888 FILLER_6_63
*889 FILLER_6_7
*890 FILLER_6_70
*891 FILLER_6_77
*892 FILLER_6_84
*893 FILLER_6_91
*894 FILLER_6_98
*895 FILLER_7_0
*896 FILLER_7_105
*897 FILLER_7_112
*898 FILLER_7_116
*899 FILLER_7_121
*900 FILLER_7_128
*901 FILLER_7_136
*902 FILLER_7_14
*903 FILLER_7_147
*904 FILLER_7_154
*905 FILLER_7_159
*906 FILLER_7_167
*907 FILLER_7_21
*908 FILLER_7_212
*909 FILLER_7_219
*910 FILLER_7_226
*911 FILLER_7_233
*912 FILLER_7_240
*913 FILLER_7_247
*914 FILLER_7_254
*915 FILLER_7_261
*916 FILLER_7_268
*917 FILLER_7_275
*918 FILLER_7_28
*919 FILLER_7_282
*920 FILLER_7_289
*921 FILLER_7_296
*922 FILLER_7_303
*923 FILLER_7_310
*924 FILLER_7_317
*925 FILLER_7_324
*926 FILLER_7_331
*927 FILLER_7_338
*928 FILLER_7_345
*929 FILLER_7_35
*930 FILLER_7_352
*931 FILLER_7_359
*932 FILLER_7_366
*933 FILLER_7_373
*934 FILLER_7_380
*935 FILLER_7_387
*936 FILLER_7_394
*937 FILLER_7_401
*938 FILLER_7_408
*939 FILLER_7_415
*940 FILLER_7_42
*941 FILLER_7_422
*942 FILLER_7_429
*943 FILLER_7_436
*944 FILLER_7_443
*945 FILLER_7_450
*946 FILLER_7_49
*947 FILLER_7_56
*948 FILLER_7_63
*949 FILLER_7_7
*950 FILLER_7_70
*951 FILLER_7_77
*952 FILLER_7_84
*953 FILLER_7_91
*954 FILLER_7_98
*955 FILLER_8_0
*956 FILLER_8_105
*957 FILLER_8_112
*958 FILLER_8_119
*959 FILLER_8_126
*960 FILLER_8_133
*961 FILLER_8_14
*962 FILLER_8_140
*963 FILLER_8_147
*964 FILLER_8_154
*965 FILLER_8_176
*966 FILLER_8_178
*967 FILLER_8_187
*968 FILLER_8_194
*969 FILLER_8_201
*970 FILLER_8_208
*971 FILLER_8_21
*972 FILLER_8_215
*973 FILLER_8_222
*974 FILLER_8_229
*975 FILLER_8_236
*976 FILLER_8_243
*977 FILLER_8_249
*978 FILLER_8_251
*979 FILLER_8_256
*980 FILLER_8_260
*981 FILLER_8_265
*982 FILLER_8_272
*983 FILLER_8_276
*984 FILLER_8_28
*985 FILLER_8_281
*986 FILLER_8_289
*987 FILLER_8_296
*988 FILLER_8_303
*989 FILLER_8_310
*990 FILLER_8_317
*991 FILLER_8_324
*992 FILLER_8_331
*993 FILLER_8_338
*994 FILLER_8_345
*995 FILLER_8_35
*996 FILLER_8_352
*997 FILLER_8_359
*998 FILLER_8_366
*999 FILLER_8_373
*1000 FILLER_8_380
*1001 FILLER_8_387
*1002 FILLER_8_394
*1003 FILLER_8_401
*1004 FILLER_8_408
*1005 FILLER_8_415
*1006 FILLER_8_42
*1007 FILLER_8_422
*1008 FILLER_8_429
*1009 FILLER_8_436
*1010 FILLER_8_443
*1011 FILLER_8_450
*1012 FILLER_8_49
*1013 FILLER_8_56
*1014 FILLER_8_63
*1015 FILLER_8_7
*1016 FILLER_8_70
*1017 FILLER_8_77
*1018 FILLER_8_84
*1019 FILLER_8_91
*1020 FILLER_8_98
*1021 FILLER_9_0
*1022 FILLER_9_102
*1023 FILLER_9_109
*1024 FILLER_9_116
*1025 FILLER_9_123
*1026 FILLER_9_128
*1027 FILLER_9_135
*1028 FILLER_9_14
*1029 FILLER_9_142
*1030 FILLER_9_149
*1031 FILLER_9_156
*1032 FILLER_9_163
*1033 FILLER_9_170
*1034 FILLER_9_177
*1035 FILLER_9_181
*1036 FILLER_9_187
*1037 FILLER_9_194
*1038 FILLER_9_201
*1039 FILLER_9_208
*1040 FILLER_9_21
*1041 FILLER_9_237
*1042 FILLER_9_243
*1043 FILLER_9_250
*1044 FILLER_9_261
*1045 FILLER_9_28
*1046 FILLER_9_288
*1047 FILLER_9_290
*1048 FILLER_9_295
*1049 FILLER_9_302
*1050 FILLER_9_309
*1051 FILLER_9_321
*1052 FILLER_9_328
*1053 FILLER_9_335
*1054 FILLER_9_342
*1055 FILLER_9_349
*1056 FILLER_9_35
*1057 FILLER_9_356
*1058 FILLER_9_363
*1059 FILLER_9_370
*1060 FILLER_9_377
*1061 FILLER_9_384
*1062 FILLER_9_391
*1063 FILLER_9_398
*1064 FILLER_9_405
*1065 FILLER_9_412
*1066 FILLER_9_419
*1067 FILLER_9_42
*1068 FILLER_9_426
*1069 FILLER_9_433
*1070 FILLER_9_440
*1071 FILLER_9_447
*1072 FILLER_9_49
*1073 FILLER_9_51
*1074 FILLER_9_56
*1075 FILLER_9_61
*1076 FILLER_9_69
*1077 FILLER_9_7
*1078 FILLER_9_76
*1079 FILLER_9_81
*1080 FILLER_9_88
*1081 FILLER_9_95
*1082 _000_
*1083 _001_
*1084 _002_
*1085 _003_
*1086 _004_
*1087 _005_
*1088 _006_
*1089 _007_
*1090 _008_
*1091 _009_
*1092 _010_
*1093 _011_
*1094 _012_
*1095 _013_
*1096 _014_
*1097 _015_
*1098 _016_
*1099 _017_
*1100 _018_
*1101 _019_
*1102 _020_
*1103 _021_
*1104 _022_
*1105 _023_
*1106 _024_
*1107 _025_
*1108 _026_
*1109 _027_
*1110 _028_
*1111 _029_
*1112 _030_
*1113 _031_
*1114 _032_
*1115 _033_
*1116 _034_
*1117 _035_
*1118 _036_
*1119 _037_
*1120 _038_
*1121 _039_
*1122 _040_
*1123 _041_
*1124 _042_
*1125 _043_
*1126 _044_
*1127 _045_
*1128 _046_
*1129 _047_
*1130 _048_
*1131 _049_
*1132 _050_
*1133 _051_
*1134 _052_
*1135 _053_
*1136 _054_
*1137 _055_
*1138 _056_
*1139 _057_
*1140 _058_
*1141 _059_
*1142 _060_
*1143 _061_
*1144 _062_
*1145 _063_
*1146 _064_
*1147 _065_
*1148 _066_
*1149 _067_
*1150 _068_
*1151 _069_
*1152 _070_
*1153 _071_
*1154 _072_
*1155 _073_
*1156 _074_
*1157 _075_
*1158 _076_
*1159 _077_
*1160 _078_
*1161 _079_
*1162 _080_
*1163 _081_
*1164 _082_
*1165 _083_
*1166 _084_
*1167 _085_
*1168 _086_
*1169 _087_
*1170 _088_
*1171 _089_
*1172 _090_
*1173 _091_
*1174 _092_
*1175 _093_
*1176 _094_
*1177 _095_
*1178 _096_
*1179 _097_
*1180 _098_
*1181 _099_
*1182 _100_
*1183 _101_
*1184 _102_
*1185 _103_
*1186 _104_
*1187 output1
*1188 output10
*1189 output100
*1190 output101
*1191 output102
*1192 output103
*1193 output104
*1194 output105
*1195 output11
*1196 output12
*1197 output13
*1198 output14
*1199 output15
*1200 output16
*1201 output17
*1202 output18
*1203 output19
*1204 output2
*1205 output20
*1206 output21
*1207 output22
*1208 output23
*1209 output24
*1210 output25
*1211 output26
*1212 output27
*1213 output28
*1214 output29
*1215 output3
*1216 output30
*1217 output31
*1218 output32
*1219 output33
*1220 output34
*1221 output35
*1222 output36
*1223 output37
*1224 output38
*1225 output39
*1226 output4
*1227 output40
*1228 output41
*1229 output42
*1230 output43
*1231 output44
*1232 output45
*1233 output46
*1234 output47
*1235 output48
*1236 output49
*1237 output5
*1238 output50
*1239 output51
*1240 output52
*1241 output53
*1242 output54
*1243 output55
*1244 output56
*1245 output57
*1246 output58
*1247 output59
*1248 output6
*1249 output60
*1250 output61
*1251 output62
*1252 output63
*1253 output64
*1254 output65
*1255 output66
*1256 output67
*1257 output68
*1258 output69
*1259 output7
*1260 output70
*1261 output71
*1262 output72
*1263 output73
*1264 output74
*1265 output75
*1266 output76
*1267 output77
*1268 output78
*1269 output79
*1270 output8
*1271 output80
*1272 output81
*1273 output82
*1274 output83
*1275 output84
*1276 output85
*1277 output86
*1278 output87
*1279 output88
*1280 output89
*1281 output9
*1282 output90
*1283 output91
*1284 output92
*1285 output93
*1286 output94
*1287 output95
*1288 output96
*1289 output97
*1290 output98
*1291 output99

*PORTS
Ci I
FrameData[0] I
FrameData[10] I
FrameData[11] I
FrameData[12] I
FrameData[13] I
FrameData[14] I
FrameData[15] I
FrameData[16] I
FrameData[17] I
FrameData[18] I
FrameData[19] I
FrameData[1] I
FrameData[20] I
FrameData[21] I
FrameData[22] I
FrameData[23] I
FrameData[24] I
FrameData[25] I
FrameData[26] I
FrameData[27] I
FrameData[28] I
FrameData[29] I
FrameData[2] I
FrameData[30] I
FrameData[31] I
FrameData[3] I
FrameData[4] I
FrameData[5] I
FrameData[6] I
FrameData[7] I
FrameData[8] I
FrameData[9] I
FrameData_O[0] O
FrameData_O[10] O
FrameData_O[11] O
FrameData_O[12] O
FrameData_O[13] O
FrameData_O[14] O
FrameData_O[15] O
FrameData_O[16] O
FrameData_O[17] O
FrameData_O[18] O
FrameData_O[19] O
FrameData_O[1] O
FrameData_O[20] O
FrameData_O[21] O
FrameData_O[22] O
FrameData_O[23] O
FrameData_O[24] O
FrameData_O[25] O
FrameData_O[26] O
FrameData_O[27] O
FrameData_O[28] O
FrameData_O[29] O
FrameData_O[2] O
FrameData_O[30] O
FrameData_O[31] O
FrameData_O[3] O
FrameData_O[4] O
FrameData_O[5] O
FrameData_O[6] O
FrameData_O[7] O
FrameData_O[8] O
FrameData_O[9] O
FrameStrobe[0] I
FrameStrobe[10] I
FrameStrobe[11] I
FrameStrobe[12] I
FrameStrobe[13] I
FrameStrobe[14] I
FrameStrobe[15] I
FrameStrobe[16] I
FrameStrobe[17] I
FrameStrobe[18] I
FrameStrobe[19] I
FrameStrobe[1] I
FrameStrobe[2] I
FrameStrobe[3] I
FrameStrobe[4] I
FrameStrobe[5] I
FrameStrobe[6] I
FrameStrobe[7] I
FrameStrobe[8] I
FrameStrobe[9] I
FrameStrobe_O[0] O
FrameStrobe_O[10] O
FrameStrobe_O[11] O
FrameStrobe_O[12] O
FrameStrobe_O[13] O
FrameStrobe_O[14] O
FrameStrobe_O[15] O
FrameStrobe_O[16] O
FrameStrobe_O[17] O
FrameStrobe_O[18] O
FrameStrobe_O[19] O
FrameStrobe_O[1] O
FrameStrobe_O[2] O
FrameStrobe_O[3] O
FrameStrobe_O[4] O
FrameStrobe_O[5] O
FrameStrobe_O[6] O
FrameStrobe_O[7] O
FrameStrobe_O[8] O
FrameStrobe_O[9] O
N1END[0] I
N1END[1] I
N1END[2] I
N1END[3] I
N2END[0] I
N2END[1] I
N2END[2] I
N2END[3] I
N2END[4] I
N2END[5] I
N2END[6] I
N2END[7] I
N2MID[0] I
N2MID[1] I
N2MID[2] I
N2MID[3] I
N2MID[4] I
N2MID[5] I
N2MID[6] I
N2MID[7] I
N4END[0] I
N4END[10] I
N4END[11] I
N4END[12] I
N4END[13] I
N4END[14] I
N4END[15] I
N4END[1] I
N4END[2] I
N4END[3] I
N4END[4] I
N4END[5] I
N4END[6] I
N4END[7] I
N4END[8] I
N4END[9] I
NN4END[0] I
NN4END[10] I
NN4END[11] I
NN4END[12] I
NN4END[13] I
NN4END[14] I
NN4END[15] I
NN4END[1] I
NN4END[2] I
NN4END[3] I
NN4END[4] I
NN4END[5] I
NN4END[6] I
NN4END[7] I
NN4END[8] I
NN4END[9] I
S1BEG[0] O
S1BEG[1] O
S1BEG[2] O
S1BEG[3] O
S2BEG[0] O
S2BEG[1] O
S2BEG[2] O
S2BEG[3] O
S2BEG[4] O
S2BEG[5] O
S2BEG[6] O
S2BEG[7] O
S2BEGb[0] O
S2BEGb[1] O
S2BEGb[2] O
S2BEGb[3] O
S2BEGb[4] O
S2BEGb[5] O
S2BEGb[6] O
S2BEGb[7] O
S4BEG[0] O
S4BEG[10] O
S4BEG[11] O
S4BEG[12] O
S4BEG[13] O
S4BEG[14] O
S4BEG[15] O
S4BEG[1] O
S4BEG[2] O
S4BEG[3] O
S4BEG[4] O
S4BEG[5] O
S4BEG[6] O
S4BEG[7] O
S4BEG[8] O
S4BEG[9] O
SS4BEG[0] O
SS4BEG[10] O
SS4BEG[11] O
SS4BEG[12] O
SS4BEG[13] O
SS4BEG[14] O
SS4BEG[15] O
SS4BEG[1] O
SS4BEG[2] O
SS4BEG[3] O
SS4BEG[4] O
SS4BEG[5] O
SS4BEG[6] O
SS4BEG[7] O
SS4BEG[8] O
SS4BEG[9] O
UserCLK I
UserCLKo O

*D_NET *2 0.0184389
*CONN
*P FrameData[0] I
*I *1082:A I *D sg13g2_buf_1
*CAP
1 FrameData[0] 0.00136746
2 *1082:A 0
3 *2:17 0
4 *2:13 0.00697974
5 *2:11 0.00697974
6 *2:9 0.00136746
7 *2:9 *9:11 0.00124925
8 *2:9 *10:11 0
9 *2:9 *13:7 0
10 *2:9 *28:11 0
11 *2:13 *121:13 0
12 *2:13 *124:15 0
13 *2:13 *274:24 0
14 *2:13 *281:14 0
15 *2:13 *282:28 0.000495252
16 *2:13 *287:16 0
*RES
1 FrameData[0] *2:9 35.983 
2 *2:9 *2:11 20 
3 *2:11 *2:13 84.3982 
4 *2:13 *2:17 40 
5 *2:17 *1082:A 20 
*END

*D_NET *3 0.0406226
*CONN
*P FrameData[10] I
*I *1092:A I *D sg13g2_buf_1
*CAP
1 FrameData[10] 0.000289369
2 *1092:A 0
3 *3:17 0.000207085
4 *3:9 0.00642759
5 *3:7 0.00650988
6 *3:7 *4:11 0
7 *3:7 *7:13 0.000128161
8 *3:7 *33:19 0
9 *3:9 *5:5 0
10 *3:9 *5:23 0.00219766
11 *3:9 *7:23 0.00140249
12 *3:9 *11:13 0.0121775
13 *3:9 *107:9 0.00225516
14 *3:9 *150:9 0.00251411
15 *3:9 *155:21 0
16 *3:9 *218:14 0
17 *3:9 *219:16 0.00209319
18 *3:9 *245:10 0.000473383
19 *3:9 *253:14 0
20 *3:9 *254:10 0.00283306
21 *3:9 *269:16 0
22 *3:9 *286:22 0
23 *3:9 *311:12 0.000553214
24 *3:17 *27:15 0.000340557
25 *3:17 *245:16 0.00014508
26 *3:17 *264:14 7.51688e-05
*RES
1 FrameData[10] *3:7 3.19042 
2 *3:7 *3:9 95.275 
3 *3:9 *3:17 42.6162 
4 *3:17 *1092:A 20 
*END

*D_NET *4 0.0393683
*CONN
*P FrameData[11] I
*I *1093:A I *D sg13g2_buf_1
*CAP
1 FrameData[11] 0.000606669
2 *1093:A 0
3 *4:27 0.000953303
4 *4:21 0.00318717
5 *4:17 0.00223387
6 *4:13 0.00198363
7 *4:11 0.0025903
8 *4:11 *5:5 0
9 *4:11 *6:11 0.000338815
10 *4:11 *28:11 0
11 *4:13 *6:13 0.0103736
12 *4:13 *32:5 0.0103744
13 *4:21 *30:11 0
14 *4:21 *32:13 0
15 *4:21 *75:25 0.00109175
16 *4:21 *310:14 0
17 *4:27 *1095:A 0
18 *4:27 *32:27 0
19 *4:27 *73:9 0.00198474
20 *4:27 *253:10 0.000524683
21 *4:27 *264:8 0.00312536
22 *4:27 *308:8 0
23 *4:27 *308:12 0
24 *3:7 *4:11 0
*RES
1 FrameData[11] *4:11 46.1259 
2 *4:11 *4:13 48.307 
3 *4:13 *4:17 40 
4 *4:17 *4:21 45.8118 
5 *4:21 *4:27 36.9847 
6 *4:27 *1093:A 20 
*END

*D_NET *5 0.0381606
*CONN
*P FrameData[12] I
*I *1094:A I *D sg13g2_buf_1
*I *319:A I *D sg13g2_antennanp
*I *320:A I *D sg13g2_antennanp
*CAP
1 FrameData[12] 0.00453892
2 *1094:A 0
3 *319:A 9.16256e-05
4 *320:A 0
5 *5:27 0.000247626
6 *5:23 0.00120767
7 *5:17 0.00170813
8 *5:5 0.00519537
9 *319:A *308:8 0
10 *5:5 *1101:A 0.00262351
11 *5:5 *1185:A 2.20968e-05
12 *5:5 *6:11 0
13 *5:5 *12:13 0
14 *5:5 *12:17 0
15 *5:5 *107:9 0
16 *5:5 *108:9 0
17 *5:5 *109:9 0
18 *5:5 *155:21 0
19 *5:5 *156:9 0
20 *5:5 *157:13 0.00161351
21 *5:5 *217:14 0.00020771
22 *5:5 *218:14 0.000154678
23 *5:5 *219:10 0.0018536
24 *5:5 *268:6 0.00366023
25 *5:5 *269:12 0.000314286
26 *5:5 *269:16 0
27 *5:5 *270:10 0.00214868
28 *5:5 *273:14 0.0030447
29 *5:5 *277:14 0.00400164
30 *5:5 *312:12 0.000367507
31 *5:17 *1185:A 0
32 *5:17 *222:14 0
33 *5:17 *286:22 0.000286552
34 *5:17 *312:12 0.00137812
35 *5:17 *314:8 0.00115136
36 *5:23 *286:22 0
37 *5:27 *75:17 0.000145418
38 *5:27 *76:9 0
39 *3:9 *5:5 0
40 *3:9 *5:23 0.00219766
41 *4:11 *5:5 0
*RES
1 FrameData[12] *5:5 71.6236 
2 *5:5 *5:17 49.4039 
3 *5:17 *5:23 32.7205 
4 *5:23 *5:27 21.6171 
5 *5:27 *320:A 20 
6 *5:27 *319:A 20.8446 
7 *5:23 *1094:A 40 
*END

*D_NET *6 0.0373651
*CONN
*P FrameData[13] I
*I *1095:A I *D sg13g2_buf_1
*CAP
1 FrameData[13] 0.000684726
2 *1095:A 0.00101989
3 *6:13 0.00443944
4 *6:11 0.00410428
5 *1095:A *1099:A 0.000765006
6 *1095:A *1100:A 4.63397e-05
7 *1095:A *9:13 0
8 *1095:A *10:21 0
9 *1095:A *32:27 0
10 *1095:A *74:17 7.51291e-05
11 *1095:A *75:17 0.000923835
12 *1095:A *215:12 0
13 *1095:A *275:10 0
14 *1095:A *286:10 0
15 *1095:A *297:10 0.000101685
16 *1095:A *308:8 0.000261309
17 *6:11 *7:11 0
18 *6:11 *11:11 0
19 *6:11 *12:13 8.01437e-05
20 *6:11 *28:11 0
21 *6:11 *28:15 0.000340291
22 *6:13 *1100:A 0.00177254
23 *6:13 *10:21 0.0113266
24 *6:13 *32:5 0
25 *6:13 *33:19 0.000711541
26 *4:11 *6:11 0.000338815
27 *4:13 *6:13 0.0103736
28 *4:27 *1095:A 0
29 *5:5 *6:11 0
*RES
1 FrameData[13] *6:11 47.3928 
2 *6:11 *6:13 64.6222 
3 *6:13 *1095:A 32.2982 
*END

*D_NET *7 0.0300717
*CONN
*P FrameData[14] I
*I *1096:A I *D sg13g2_buf_1
*CAP
1 FrameData[14] 0.000519289
2 *1096:A 0
3 *7:23 0.000734135
4 *7:13 0.00579816
5 *7:11 0.00558331
6 *7:11 *8:11 0
7 *7:11 *9:11 0
8 *7:11 *10:11 0.000566979
9 *7:11 *28:11 0.000404825
10 *7:13 *8:15 0
11 *7:13 *8:29 0
12 *7:13 *10:17 0.00278307
13 *7:13 *10:21 0
14 *7:13 *11:13 0
15 *7:13 *33:19 0
16 *7:13 *33:23 0.00495493
17 *7:13 *106:9 0.00220194
18 *7:13 *154:17 0.00256847
19 *7:13 *220:14 0.00020775
20 *7:13 *271:10 0.00159027
21 *7:23 *8:29 0
22 *7:23 *220:14 0
23 *7:23 *292:26 0
24 *7:23 *293:18 0
25 *7:23 *309:10 0
26 *7:23 *310:8 0.000260971
27 *7:23 *311:12 0.000366996
28 *3:7 *7:13 0.000128161
29 *3:9 *7:23 0.00140249
30 *6:11 *7:11 0
*RES
1 FrameData[14] *7:11 45.9405 
2 *7:11 *7:13 61.1614 
3 *7:13 *7:23 49.1155 
4 *7:23 *1096:A 20 
*END

*D_NET *8 0.0326631
*CONN
*P FrameData[15] I
*I *1097:A I *D sg13g2_buf_1
*CAP
1 FrameData[15] 0.000670167
2 *1097:A 0
3 *8:35 0.000154435
4 *8:29 0.00405371
5 *8:23 0.00389928
6 *8:21 9.80469e-05
7 *8:15 0.00140087
8 *8:11 0.00197299
9 *8:11 *9:11 0
10 *8:11 *10:11 0.000729698
11 *8:11 *11:11 0.000632167
12 *8:11 *28:11 0
13 *8:15 *10:17 0.00273003
14 *8:15 *33:19 0.00431119
15 *8:15 *271:10 0.00153724
16 *8:21 *118:27 0
17 *8:29 *10:21 0
18 *8:29 *33:23 0.00490209
19 *8:29 *33:37 0.00390466