* NGSPICE file created from N_term_single2.ext - technology: sky130A

* Black-box entry subcircuit for sky130_ef_sc_hd__decap_12 abstract view
.subckt sky130_ef_sc_hd__decap_12 VPWR VGND VPB VNB
.ends

* Black-box entry subcircuit for sky130_fd_sc_hd__tapvpwrvgnd_1 abstract view
.subckt sky130_fd_sc_hd__tapvpwrvgnd_1 VGND VPWR
.ends

* Black-box entry subcircuit for sky130_fd_sc_hd__decap_3 abstract view
.subckt sky130_fd_sc_hd__decap_3 VGND VNB VPB VPWR
.ends

* Black-box entry subcircuit for sky130_fd_sc_hd__fill_2 abstract view
.subckt sky130_fd_sc_hd__fill_2 VGND VNB VPB VPWR
.ends

* Black-box entry subcircuit for sky130_fd_sc_hd__decap_4 abstract view
.subckt sky130_fd_sc_hd__decap_4 VGND VNB VPB VPWR
.ends

* Black-box entry subcircuit for sky130_fd_sc_hd__clkbuf_1 abstract view
.subckt sky130_fd_sc_hd__clkbuf_1 A VGND VNB VPB VPWR X
.ends

* Black-box entry subcircuit for sky130_fd_sc_hd__fill_1 abstract view
.subckt sky130_fd_sc_hd__fill_1 VGND VNB VPB VPWR
.ends

* Black-box entry subcircuit for sky130_fd_sc_hd__decap_6 abstract view
.subckt sky130_fd_sc_hd__decap_6 VGND VNB VPB VPWR
.ends

* Black-box entry subcircuit for sky130_fd_sc_hd__clkbuf_2 abstract view
.subckt sky130_fd_sc_hd__clkbuf_2 A VGND VNB VPB VPWR X
.ends

* Black-box entry subcircuit for sky130_fd_sc_hd__diode_2 abstract view
.subckt sky130_fd_sc_hd__diode_2 DIODE VGND VNB VPB VPWR
.ends

* Black-box entry subcircuit for sky130_fd_sc_hd__buf_2 abstract view
.subckt sky130_fd_sc_hd__buf_2 A VGND VNB VPB VPWR X
.ends

* Black-box entry subcircuit for sky130_fd_sc_hd__decap_8 abstract view
.subckt sky130_fd_sc_hd__decap_8 VGND VNB VPB VPWR
.ends

* Black-box entry subcircuit for sky130_fd_sc_hd__buf_1 abstract view
.subckt sky130_fd_sc_hd__buf_1 A VGND VNB VPB VPWR X
.ends

.subckt N_term_single2 FrameData[0] FrameData[10] FrameData[11] FrameData[12] FrameData[13]
+ FrameData[14] FrameData[15] FrameData[16] FrameData[17] FrameData[18] FrameData[19]
+ FrameData[1] FrameData[20] FrameData[21] FrameData[22] FrameData[23] FrameData[24]
+ FrameData[25] FrameData[26] FrameData[27] FrameData[28] FrameData[29] FrameData[2]
+ FrameData[30] FrameData[31] FrameData[3] FrameData[4] FrameData[5] FrameData[6]
+ FrameData[7] FrameData[8] FrameData[9] FrameData_O[0] FrameData_O[10] FrameData_O[11]
+ FrameData_O[12] FrameData_O[13] FrameData_O[14] FrameData_O[15] FrameData_O[16]
+ FrameData_O[17] FrameData_O[18] FrameData_O[19] FrameData_O[1] FrameData_O[20] FrameData_O[21]
+ FrameData_O[22] FrameData_O[23] FrameData_O[24] FrameData_O[25] FrameData_O[26]
+ FrameData_O[27] FrameData_O[28] FrameData_O[29] FrameData_O[2] FrameData_O[30] FrameData_O[31]
+ FrameData_O[3] FrameData_O[4] FrameData_O[5] FrameData_O[6] FrameData_O[7] FrameData_O[8]
+ FrameData_O[9] FrameStrobe[0] FrameStrobe[10] FrameStrobe[11] FrameStrobe[12] FrameStrobe[13]
+ FrameStrobe[14] FrameStrobe[15] FrameStrobe[16] FrameStrobe[17] FrameStrobe[18]
+ FrameStrobe[19] FrameStrobe[1] FrameStrobe[2] FrameStrobe[3] FrameStrobe[4] FrameStrobe[5]
+ FrameStrobe[6] FrameStrobe[7] FrameStrobe[8] FrameStrobe[9] FrameStrobe_O[0] FrameStrobe_O[10]
+ FrameStrobe_O[11] FrameStrobe_O[12] FrameStrobe_O[13] FrameStrobe_O[14] FrameStrobe_O[15]
+ FrameStrobe_O[16] FrameStrobe_O[17] FrameStrobe_O[18] FrameStrobe_O[19] FrameStrobe_O[1]
+ FrameStrobe_O[2] FrameStrobe_O[3] FrameStrobe_O[4] FrameStrobe_O[5] FrameStrobe_O[6]
+ FrameStrobe_O[7] FrameStrobe_O[8] FrameStrobe_O[9] N1END[0] N1END[1] N1END[2] N1END[3]
+ N2END[0] N2END[1] N2END[2] N2END[3] N2END[4] N2END[5] N2END[6] N2END[7] N2MID[0]
+ N2MID[1] N2MID[2] N2MID[3] N2MID[4] N2MID[5] N2MID[6] N2MID[7] N4END[0] N4END[10]
+ N4END[11] N4END[12] N4END[13] N4END[14] N4END[15] N4END[1] N4END[2] N4END[3] N4END[4]
+ N4END[5] N4END[6] N4END[7] N4END[8] N4END[9] NN4END[0] NN4END[10] NN4END[11] NN4END[12]
+ NN4END[13] NN4END[14] NN4END[15] NN4END[1] NN4END[2] NN4END[3] NN4END[4] NN4END[5]
+ NN4END[6] NN4END[7] NN4END[8] NN4END[9] S1BEG[0] S1BEG[1] S1BEG[2] S1BEG[3] S2BEG[0]
+ S2BEG[1] S2BEG[2] S2BEG[3] S2BEG[4] S2BEG[5] S2BEG[6] S2BEG[7] S2BEGb[0] S2BEGb[1]
+ S2BEGb[2] S2BEGb[3] S2BEGb[4] S2BEGb[5] S2BEGb[6] S2BEGb[7] S4BEG[0] S4BEG[10] S4BEG[11]
+ S4BEG[12] S4BEG[13] S4BEG[14] S4BEG[15] S4BEG[1] S4BEG[2] S4BEG[3] S4BEG[4] S4BEG[5]
+ S4BEG[6] S4BEG[7] S4BEG[8] S4BEG[9] SS4BEG[0] SS4BEG[10] SS4BEG[11] SS4BEG[12] SS4BEG[13]
+ SS4BEG[14] SS4BEG[15] SS4BEG[1] SS4BEG[2] SS4BEG[3] SS4BEG[4] SS4BEG[5] SS4BEG[6]
+ SS4BEG[7] SS4BEG[8] SS4BEG[9] UserCLK UserCLKo VGND VPWR
XFILLER_10_339 VPWR VGND VPWR VGND sky130_ef_sc_hd__decap_12
XTAP_TAPCELL_ROW_9_115 VGND VPWR sky130_fd_sc_hd__tapvpwrvgnd_1
XPHY_EDGE_ROW_0_Left_12 VGND VGND VPWR VPWR sky130_fd_sc_hd__decap_3
XFILLER_2_302 VGND VGND VPWR VPWR sky130_fd_sc_hd__decap_3
XFILLER_2_313 VGND VGND VPWR VPWR sky130_fd_sc_hd__fill_2
XFILLER_2_324 VGND VGND VPWR VPWR sky130_fd_sc_hd__decap_4
XTAP_TAPCELL_ROW_11_142 VGND VPWR sky130_fd_sc_hd__tapvpwrvgnd_1
XFILLER_5_140 VPWR VGND VPWR VGND sky130_ef_sc_hd__decap_12
XFILLER_11_445 VGND VGND VPWR VPWR sky130_fd_sc_hd__decap_3
XFILLER_11_401 VGND VGND VPWR VPWR sky130_fd_sc_hd__decap_3
XFILLER_7_405 VPWR VGND VPWR VGND sky130_ef_sc_hd__decap_12
X_062_ N2MID[1] VGND VGND VPWR VPWR net63 sky130_fd_sc_hd__clkbuf_1
XFILLER_9_55 VGND VGND VPWR VPWR sky130_fd_sc_hd__fill_1
XFILLER_0_57 VPWR VGND VPWR VGND sky130_ef_sc_hd__decap_12
XFILLER_2_121 VPWR VGND VPWR VGND sky130_ef_sc_hd__decap_12
XFILLER_2_165 VPWR VGND VPWR VGND sky130_ef_sc_hd__decap_12
XFILLER_4_419 VGND VGND VPWR VPWR sky130_fd_sc_hd__fill_1
XFILLER_11_297 VGND VGND VPWR VPWR sky130_fd_sc_hd__decap_6
XFILLER_11_253 VGND VGND VPWR VPWR sky130_fd_sc_hd__fill_1
XFILLER_11_220 VGND VGND VPWR VPWR sky130_fd_sc_hd__decap_4
X_045_ FrameStrobe[13] VGND VGND VPWR VPWR net37 sky130_fd_sc_hd__clkbuf_1
XTAP_TAPCELL_ROW_5_78 VGND VPWR sky130_fd_sc_hd__tapvpwrvgnd_1
XFILLER_0_477 VGND VGND VPWR VPWR sky130_fd_sc_hd__decap_6
X_028_ FrameData[28] VGND VGND VPWR VPWR net21 sky130_fd_sc_hd__clkbuf_2
XANTENNA_5 FrameData[14] VGND VGND VPWR VPWR sky130_fd_sc_hd__diode_2
XFILLER_3_293 VPWR VGND VPWR VGND sky130_ef_sc_hd__decap_12
Xoutput42 net42 VGND VGND VPWR VPWR FrameStrobe_O[18] sky130_fd_sc_hd__buf_2
Xoutput20 net20 VGND VGND VPWR VPWR FrameData_O[27] sky130_fd_sc_hd__buf_2
XFILLER_8_363 VGND VGND VPWR VPWR sky130_fd_sc_hd__fill_1
Xoutput7 net7 VGND VGND VPWR VPWR FrameData_O[15] sky130_fd_sc_hd__buf_2
Xoutput64 net64 VGND VGND VPWR VPWR S2BEG[7] sky130_fd_sc_hd__buf_2
Xoutput53 net53 VGND VGND VPWR VPWR S1BEG[0] sky130_fd_sc_hd__buf_2
Xoutput86 net86 VGND VGND VPWR VPWR S4BEG[7] sky130_fd_sc_hd__buf_2
Xoutput75 net75 VGND VGND VPWR VPWR S4BEG[11] sky130_fd_sc_hd__buf_2
Xoutput97 net97 VGND VGND VPWR VPWR SS4BEG[2] sky130_fd_sc_hd__buf_2
Xoutput31 net31 VGND VGND VPWR VPWR FrameData_O[8] sky130_fd_sc_hd__buf_2
XTAP_TAPCELL_ROW_2_57 VGND VPWR sky130_fd_sc_hd__tapvpwrvgnd_1
XFILLER_10_307 VGND VGND VPWR VPWR sky130_fd_sc_hd__fill_1
XTAP_TAPCELL_ROW_9_116 VGND VPWR sky130_fd_sc_hd__tapvpwrvgnd_1
XFILLER_9_105 VGND VGND VPWR VPWR sky130_fd_sc_hd__decap_6
XFILLER_5_333 VGND VGND VPWR VPWR sky130_fd_sc_hd__decap_3
XFILLER_3_57 VGND VGND VPWR VPWR sky130_fd_sc_hd__decap_8
XFILLER_3_79 VGND VGND VPWR VPWR sky130_fd_sc_hd__fill_1
XTAP_TAPCELL_ROW_11_143 VGND VPWR sky130_fd_sc_hd__tapvpwrvgnd_1
XTAP_TAPCELL_ROW_11_132 VGND VPWR sky130_fd_sc_hd__tapvpwrvgnd_1
XFILLER_5_152 VGND VGND VPWR VPWR sky130_fd_sc_hd__fill_2
X_061_ N2MID[2] VGND VGND VPWR VPWR net62 sky130_fd_sc_hd__clkbuf_1
XFILLER_7_417 VPWR VGND VPWR VGND sky130_ef_sc_hd__decap_12
XFILLER_0_69 VPWR VGND VPWR VGND sky130_ef_sc_hd__decap_12
XFILLER_2_133 VGND VGND VPWR VPWR sky130_fd_sc_hd__decap_6
XFILLER_2_177 VPWR VGND VPWR VGND sky130_ef_sc_hd__decap_12
X_044_ FrameStrobe[12] VGND VGND VPWR VPWR net36 sky130_fd_sc_hd__buf_1
XFILLER_7_225 VGND VGND VPWR VPWR sky130_fd_sc_hd__fill_2
XTAP_TAPCELL_ROW_5_79 VGND VPWR sky130_fd_sc_hd__tapvpwrvgnd_1
X_027_ FrameData[27] VGND VGND VPWR VPWR net20 sky130_fd_sc_hd__buf_1
XANTENNA_6 FrameData[15] VGND VGND VPWR VPWR sky130_fd_sc_hd__diode_2
XFILLER_3_261 VPWR VGND VPWR VGND sky130_ef_sc_hd__decap_12
XPHY_EDGE_ROW_6_Right_6 VGND VGND VPWR VPWR sky130_fd_sc_hd__decap_3
Xoutput43 net43 VGND VGND VPWR VPWR FrameStrobe_O[19] sky130_fd_sc_hd__buf_2
Xoutput21 net21 VGND VGND VPWR VPWR FrameData_O[28] sky130_fd_sc_hd__buf_2
Xoutput8 net8 VGND VGND VPWR VPWR FrameData_O[16] sky130_fd_sc_hd__buf_2
Xoutput10 net10 VGND VGND VPWR VPWR FrameData_O[18] sky130_fd_sc_hd__buf_2
Xoutput65 net65 VGND VGND VPWR VPWR S2BEGb[0] sky130_fd_sc_hd__buf_2
XFILLER_0_253 VGND VGND VPWR VPWR sky130_fd_sc_hd__fill_1
Xoutput54 net54 VGND VGND VPWR VPWR S1BEG[1] sky130_fd_sc_hd__buf_2
Xoutput87 net87 VGND VGND VPWR VPWR S4BEG[8] sky130_fd_sc_hd__buf_2
Xoutput76 net76 VGND VGND VPWR VPWR S4BEG[12] sky130_fd_sc_hd__buf_2
Xoutput98 net98 VGND VGND VPWR VPWR SS4BEG[3] sky130_fd_sc_hd__buf_2
XTAP_TAPCELL_ROW_2_58 VGND VPWR sky130_fd_sc_hd__tapvpwrvgnd_1
Xoutput32 net32 VGND VGND VPWR VPWR FrameData_O[9] sky130_fd_sc_hd__buf_2
XTAP_TAPCELL_ROW_9_117 VGND VPWR sky130_fd_sc_hd__tapvpwrvgnd_1
XFILLER_5_301 VPWR VGND VPWR VGND sky130_ef_sc_hd__decap_12
XFILLER_8_194 VGND VGND VPWR VPWR sky130_fd_sc_hd__fill_2
XFILLER_6_109 VPWR VGND VPWR VGND sky130_ef_sc_hd__decap_12
XFILLER_2_337 VGND VGND VPWR VPWR sky130_fd_sc_hd__decap_4
XTAP_TAPCELL_ROW_11_144 VGND VPWR sky130_fd_sc_hd__tapvpwrvgnd_1
XTAP_TAPCELL_ROW_11_133 VGND VPWR sky130_fd_sc_hd__tapvpwrvgnd_1
XFILLER_1_370 VPWR VGND VPWR VGND sky130_ef_sc_hd__decap_12
XFILLER_11_458 VPWR VGND VPWR VGND sky130_ef_sc_hd__decap_12
X_060_ N2MID[3] VGND VGND VPWR VPWR net61 sky130_fd_sc_hd__clkbuf_1
XFILLER_7_429 VPWR VGND VPWR VGND sky130_ef_sc_hd__decap_12
XFILLER_0_15 VPWR VGND VPWR VGND sky130_ef_sc_hd__decap_12
XFILLER_2_189 VGND VGND VPWR VPWR sky130_fd_sc_hd__decap_6
XFILLER_3_3 VGND VGND VPWR VPWR sky130_fd_sc_hd__decap_8
XFILLER_9_57 VPWR VGND VPWR VGND sky130_ef_sc_hd__decap_12
XFILLER_11_233 VPWR VGND VPWR VGND sky130_ef_sc_hd__decap_12
X_043_ FrameStrobe[11] VGND VGND VPWR VPWR net35 sky130_fd_sc_hd__clkbuf_1
XFILLER_3_454 VPWR VGND VPWR VGND sky130_ef_sc_hd__decap_12
X_026_ FrameData[26] VGND VGND VPWR VPWR net19 sky130_fd_sc_hd__buf_1
XANTENNA_7 FrameData[16] VGND VGND VPWR VPWR sky130_fd_sc_hd__diode_2
XFILLER_3_273 VGND VGND VPWR VPWR sky130_fd_sc_hd__decap_6
XTAP_TAPCELL_ROW_6_90 VGND VPWR sky130_fd_sc_hd__tapvpwrvgnd_1
Xoutput44 net44 VGND VGND VPWR VPWR FrameStrobe_O[1] sky130_fd_sc_hd__buf_2
Xoutput33 net33 VGND VGND VPWR VPWR FrameStrobe_O[0] sky130_fd_sc_hd__buf_2
Xoutput22 net22 VGND VGND VPWR VPWR FrameData_O[29] sky130_fd_sc_hd__buf_2
Xoutput11 net11 VGND VGND VPWR VPWR FrameData_O[19] sky130_fd_sc_hd__buf_2
Xoutput9 net9 VGND VGND VPWR VPWR FrameData_O[17] sky130_fd_sc_hd__buf_2
Xoutput66 net66 VGND VGND VPWR VPWR S2BEGb[1] sky130_fd_sc_hd__buf_2
Xoutput55 net55 VGND VGND VPWR VPWR S1BEG[2] sky130_fd_sc_hd__buf_2
Xoutput88 net88 VGND VGND VPWR VPWR S4BEG[9] sky130_fd_sc_hd__buf_2
Xoutput77 net77 VGND VGND VPWR VPWR S4BEG[13] sky130_fd_sc_hd__buf_2
Xoutput99 net99 VGND VGND VPWR VPWR SS4BEG[4] sky130_fd_sc_hd__buf_2
XTAP_TAPCELL_ROW_2_59 VGND VPWR sky130_fd_sc_hd__tapvpwrvgnd_1
X_009_ FrameData[9] VGND VGND VPWR VPWR net32 sky130_fd_sc_hd__buf_1
XFILLER_8_365 VPWR VGND VPWR VGND sky130_ef_sc_hd__decap_12
XFILLER_8_321 VPWR VGND VPWR VGND sky130_ef_sc_hd__decap_12
XTAP_TAPCELL_ROW_9_118 VGND VPWR sky130_fd_sc_hd__tapvpwrvgnd_1
XFILLER_5_313 VPWR VGND VPWR VGND sky130_ef_sc_hd__decap_12
XFILLER_3_15 VPWR VGND VPWR VGND sky130_ef_sc_hd__decap_12
XFILLER_10_139 VGND VGND VPWR VPWR sky130_fd_sc_hd__fill_1
XTAP_TAPCELL_ROW_11_145 VGND VPWR sky130_fd_sc_hd__tapvpwrvgnd_1
XTAP_TAPCELL_ROW_11_134 VGND VPWR sky130_fd_sc_hd__tapvpwrvgnd_1
XFILLER_5_176 VGND VGND VPWR VPWR sky130_fd_sc_hd__fill_2
XFILLER_1_393 VPWR VGND VPWR VGND sky130_ef_sc_hd__decap_12
XFILLER_0_27 VGND VGND VPWR VPWR sky130_fd_sc_hd__fill_1
XPHY_EDGE_ROW_4_Left_16 VGND VGND VPWR VPWR sky130_fd_sc_hd__decap_3
XFILLER_9_69 VPWR VGND VPWR VGND sky130_ef_sc_hd__decap_12
XFILLER_11_278 VGND VGND VPWR VPWR sky130_fd_sc_hd__fill_2
XFILLER_11_245 VGND VGND VPWR VPWR sky130_fd_sc_hd__decap_6
X_042_ FrameStrobe[10] VGND VGND VPWR VPWR net34 sky130_fd_sc_hd__buf_1
XFILLER_7_205 VPWR VGND VPWR VGND sky130_ef_sc_hd__decap_12
XFILLER_3_466 VPWR VGND VPWR VGND sky130_ef_sc_hd__decap_12
XFILLER_1_81 VPWR VGND VPWR VGND sky130_ef_sc_hd__decap_12
X_025_ FrameData[25] VGND VGND VPWR VPWR net18 sky130_fd_sc_hd__clkbuf_1
XFILLER_6_15 VPWR VGND VPWR VGND sky130_ef_sc_hd__decap_12
XFILLER_0_447 VGND VGND VPWR VPWR sky130_fd_sc_hd__fill_1
XANTENNA_8 FrameData[18] VGND VGND VPWR VPWR sky130_fd_sc_hd__diode_2
XTAP_TAPCELL_ROW_6_91 VGND VPWR sky130_fd_sc_hd__tapvpwrvgnd_1
Xoutput34 net34 VGND VGND VPWR VPWR FrameStrobe_O[10] sky130_fd_sc_hd__buf_2
Xoutput45 net45 VGND VGND VPWR VPWR FrameStrobe_O[2] sky130_fd_sc_hd__buf_2
Xoutput56 net56 VGND VGND VPWR VPWR S1BEG[3] sky130_fd_sc_hd__buf_2
Xoutput67 net67 VGND VGND VPWR VPWR S2BEGb[2] sky130_fd_sc_hd__buf_2
Xoutput78 net78 VGND VGND VPWR VPWR S4BEG[14] sky130_fd_sc_hd__buf_2
Xoutput89 net89 VGND VGND VPWR VPWR SS4BEG[0] sky130_fd_sc_hd__buf_2
Xoutput23 net23 VGND VGND VPWR VPWR FrameData_O[2] sky130_fd_sc_hd__buf_2
Xoutput12 net12 VGND VGND VPWR VPWR FrameData_O[1] sky130_fd_sc_hd__buf_2
XFILLER_11_3 VGND VGND VPWR VPWR sky130_fd_sc_hd__fill_1
XFILLER_8_377 VPWR VGND VPWR VGND sky130_ef_sc_hd__decap_12
XFILLER_8_333 VPWR VGND VPWR VGND sky130_ef_sc_hd__decap_12
X_008_ FrameData[8] VGND VGND VPWR VPWR net31 sky130_fd_sc_hd__clkbuf_1
XTAP_TAPCELL_ROW_9_119 VGND VPWR sky130_fd_sc_hd__tapvpwrvgnd_1
XFILLER_5_325 VGND VGND VPWR VPWR sky130_fd_sc_hd__decap_8
XFILLER_3_27 VPWR VGND VPWR VGND sky130_ef_sc_hd__decap_12
XFILLER_8_163 VPWR VGND VPWR VGND sky130_ef_sc_hd__decap_12
XFILLER_8_141 VPWR VGND VPWR VGND sky130_ef_sc_hd__decap_12
XTAP_TAPCELL_ROW_11_146 VGND VPWR sky130_fd_sc_hd__tapvpwrvgnd_1
XTAP_TAPCELL_ROW_11_135 VGND VPWR sky130_fd_sc_hd__tapvpwrvgnd_1
XFILLER_9_461 VPWR VGND VPWR VGND sky130_ef_sc_hd__decap_12
XFILLER_11_449 VGND VGND VPWR VPWR sky130_fd_sc_hd__decap_4
XFILLER_9_15 VPWR VGND VPWR VGND sky130_ef_sc_hd__decap_12
XFILLER_6_475 VGND VGND VPWR VPWR sky130_fd_sc_hd__fill_1
X_041_ FrameStrobe[9] VGND VGND VPWR VPWR net52 sky130_fd_sc_hd__clkbuf_1
XFILLER_7_217 VGND VGND VPWR VPWR sky130_fd_sc_hd__decap_6
XFILLER_3_478 VPWR VGND VPWR VGND sky130_ef_sc_hd__decap_12
XFILLER_1_93 VPWR VGND VPWR VGND sky130_ef_sc_hd__decap_12
X_024_ FrameData[24] VGND VGND VPWR VPWR net17 sky130_fd_sc_hd__buf_1
XTAP_TAPCELL_ROW_6_92 VGND VPWR sky130_fd_sc_hd__tapvpwrvgnd_1
XFILLER_6_27 VGND VGND VPWR VPWR sky130_fd_sc_hd__fill_1
XANTENNA_9 FrameData[19] VGND VGND VPWR VPWR sky130_fd_sc_hd__diode_2
Xoutput35 net35 VGND VGND VPWR VPWR FrameStrobe_O[11] sky130_fd_sc_hd__buf_2
Xoutput46 net46 VGND VGND VPWR VPWR FrameStrobe_O[3] sky130_fd_sc_hd__buf_2
Xoutput24 net24 VGND VGND VPWR VPWR FrameData_O[30] sky130_fd_sc_hd__buf_2
Xoutput13 net13 VGND VGND VPWR VPWR FrameData_O[20] sky130_fd_sc_hd__buf_2
Xoutput57 net57 VGND VGND VPWR VPWR S2BEG[0] sky130_fd_sc_hd__buf_2
XFILLER_8_389 VPWR VGND VPWR VGND sky130_ef_sc_hd__decap_12
XFILLER_8_345 VPWR VGND VPWR VGND sky130_ef_sc_hd__decap_12
XFILLER_0_278 VGND VGND VPWR VPWR sky130_fd_sc_hd__fill_2
Xoutput68 net68 VGND VGND VPWR VPWR S2BEGb[3] sky130_fd_sc_hd__buf_2
Xoutput79 net79 VGND VGND VPWR VPWR S4BEG[15] sky130_fd_sc_hd__buf_2
X_007_ FrameData[7] VGND VGND VPWR VPWR net30 sky130_fd_sc_hd__clkbuf_1
XFILLER_7_81 VPWR VGND VPWR VGND sky130_ef_sc_hd__decap_12
XFILLER_5_337 VPWR VGND VPWR VGND sky130_ef_sc_hd__decap_12
XFILLER_3_39 VPWR VGND VPWR VGND sky130_ef_sc_hd__decap_12
XFILLER_8_197 VPWR VGND VPWR VGND sky130_ef_sc_hd__decap_12
XFILLER_8_175 VPWR VGND VPWR VGND sky130_ef_sc_hd__decap_12
XFILLER_8_153 VGND VGND VPWR VPWR sky130_fd_sc_hd__decap_4
XTAP_TAPCELL_ROW_3_60 VGND VPWR sky130_fd_sc_hd__tapvpwrvgnd_1
XFILLER_2_318 VGND VGND VPWR VPWR sky130_fd_sc_hd__fill_1
XTAP_TAPCELL_ROW_11_147 VGND VPWR sky130_fd_sc_hd__tapvpwrvgnd_1
XTAP_TAPCELL_ROW_11_136 VGND VPWR sky130_fd_sc_hd__tapvpwrvgnd_1
XFILLER_9_473 VPWR VGND VPWR VGND sky130_ef_sc_hd__decap_12
XFILLER_4_71 VPWR VGND VPWR VGND sky130_ef_sc_hd__decap_12
XFILLER_9_27 VPWR VGND VPWR VGND sky130_ef_sc_hd__decap_12
XFILLER_6_421 VPWR VGND VPWR VGND sky130_ef_sc_hd__decap_12
XFILLER_0_29 VPWR VGND VPWR VGND sky130_ef_sc_hd__decap_12
XFILLER_9_281 VPWR VGND VPWR VGND sky130_ef_sc_hd__decap_12
XFILLER_11_258 VPWR VGND VPWR VGND sky130_ef_sc_hd__decap_12
XFILLER_11_225 VGND VGND VPWR VPWR sky130_fd_sc_hd__decap_4
XFILLER_11_203 VGND VGND VPWR VPWR sky130_fd_sc_hd__fill_1
X_040_ FrameStrobe[8] VGND VGND VPWR VPWR net51 sky130_fd_sc_hd__clkbuf_1
XFILLER_1_3 VPWR VGND VPWR VGND sky130_ef_sc_hd__decap_12
XFILLER_0_449 VPWR VGND VPWR VGND sky130_ef_sc_hd__decap_12
X_023_ FrameData[23] VGND VGND VPWR VPWR net16 sky130_fd_sc_hd__clkbuf_2
XTAP_TAPCELL_ROW_6_93 VGND VPWR sky130_fd_sc_hd__tapvpwrvgnd_1
Xoutput36 net36 VGND VGND VPWR VPWR FrameStrobe_O[12] sky130_fd_sc_hd__buf_2
Xoutput47 net47 VGND VGND VPWR VPWR FrameStrobe_O[4] sky130_fd_sc_hd__buf_2
Xoutput25 net25 VGND VGND VPWR VPWR FrameData_O[31] sky130_fd_sc_hd__buf_2
Xoutput14 net14 VGND VGND VPWR VPWR FrameData_O[21] sky130_fd_sc_hd__buf_2
XFILLER_8_357 VGND VGND VPWR VPWR sky130_fd_sc_hd__decap_6
Xoutput58 net58 VGND VGND VPWR VPWR S2BEG[1] sky130_fd_sc_hd__buf_2
Xoutput69 net69 VGND VGND VPWR VPWR S2BEGb[4] sky130_fd_sc_hd__buf_2
X_006_ FrameData[6] VGND VGND VPWR VPWR net29 sky130_fd_sc_hd__clkbuf_1
XFILLER_7_390 VGND VGND VPWR VPWR sky130_fd_sc_hd__fill_2
XFILLER_7_93 VPWR VGND VPWR VGND sky130_ef_sc_hd__decap_12
XTAP_TAPCELL_ROW_8_110 VGND VPWR sky130_fd_sc_hd__tapvpwrvgnd_1
XFILLER_5_349 VPWR VGND VPWR VGND sky130_ef_sc_hd__decap_12
XFILLER_8_187 VGND VGND VPWR VPWR sky130_fd_sc_hd__fill_1
XFILLER_8_121 VPWR VGND VPWR VGND sky130_ef_sc_hd__decap_12
XTAP_TAPCELL_ROW_3_61 VGND VPWR sky130_fd_sc_hd__tapvpwrvgnd_1
XTAP_TAPCELL_ROW_11_148 VGND VPWR sky130_fd_sc_hd__tapvpwrvgnd_1
XTAP_TAPCELL_ROW_11_137 VGND VPWR sky130_fd_sc_hd__tapvpwrvgnd_1
XFILLER_5_157 VGND VGND VPWR VPWR sky130_fd_sc_hd__decap_8
XFILLER_5_113 VGND VGND VPWR VPWR sky130_fd_sc_hd__decap_8
XFILLER_1_330 VGND VGND VPWR VPWR sky130_fd_sc_hd__decap_6
XFILLER_9_485 VGND VGND VPWR VPWR sky130_fd_sc_hd__decap_8
XFILLER_4_83 VGND VGND VPWR VPWR sky130_fd_sc_hd__fill_1
XFILLER_9_39 VPWR VGND VPWR VGND sky130_ef_sc_hd__decap_12
XFILLER_6_433 VPWR VGND VPWR VGND sky130_ef_sc_hd__decap_12
XFILLER_9_293 VPWR VGND VPWR VGND sky130_ef_sc_hd__decap_12
XFILLER_6_477 VPWR VGND VPWR VGND sky130_ef_sc_hd__decap_12
XTAP_TAPCELL_ROW_0_40 VGND VPWR sky130_fd_sc_hd__tapvpwrvgnd_1
XFILLER_6_241 VGND VGND VPWR VPWR sky130_fd_sc_hd__decap_8
X_099_ NN4END[4] VGND VGND VPWR VPWR net91 sky130_fd_sc_hd__buf_1
XFILLER_1_51 VGND VGND VPWR VPWR sky130_fd_sc_hd__decap_4
XFILLER_0_417 VGND VGND VPWR VPWR sky130_fd_sc_hd__decap_3
X_022_ FrameData[22] VGND VGND VPWR VPWR net15 sky130_fd_sc_hd__buf_1
XFILLER_6_29 VPWR VGND VPWR VGND sky130_ef_sc_hd__decap_12
XTAP_TAPCELL_ROW_6_94 VGND VPWR sky130_fd_sc_hd__tapvpwrvgnd_1
Xoutput37 net37 VGND VGND VPWR VPWR FrameStrobe_O[13] sky130_fd_sc_hd__buf_2
Xoutput48 net48 VGND VGND VPWR VPWR FrameStrobe_O[5] sky130_fd_sc_hd__buf_2
Xoutput15 net15 VGND VGND VPWR VPWR FrameData_O[22] sky130_fd_sc_hd__buf_2
Xoutput59 net59 VGND VGND VPWR VPWR S2BEG[2] sky130_fd_sc_hd__buf_2
XFILLER_0_225 VGND VGND VPWR VPWR sky130_fd_sc_hd__decap_3
Xoutput26 net26 VGND VGND VPWR VPWR FrameData_O[3] sky130_fd_sc_hd__buf_2
XPHY_EDGE_ROW_1_Right_1 VGND VGND VPWR VPWR sky130_fd_sc_hd__decap_3
X_005_ FrameData[5] VGND VGND VPWR VPWR net28 sky130_fd_sc_hd__clkbuf_1
XTAP_TAPCELL_ROW_8_111 VGND VPWR sky130_fd_sc_hd__tapvpwrvgnd_1
XFILLER_8_133 VGND VGND VPWR VPWR sky130_fd_sc_hd__decap_6
XTAP_TAPCELL_ROW_3_62 VGND VPWR sky130_fd_sc_hd__tapvpwrvgnd_1
XFILLER_2_309 VGND VGND VPWR VPWR sky130_fd_sc_hd__fill_1
XTAP_TAPCELL_ROW_11_149 VGND VPWR sky130_fd_sc_hd__tapvpwrvgnd_1
XTAP_TAPCELL_ROW_11_138 VGND VPWR sky130_fd_sc_hd__tapvpwrvgnd_1
XFILLER_5_169 VGND VGND VPWR VPWR sky130_fd_sc_hd__decap_4
XFILLER_5_125 VGND VGND VPWR VPWR sky130_fd_sc_hd__fill_1
XFILLER_1_353 VGND VGND VPWR VPWR sky130_fd_sc_hd__fill_1
XFILLER_1_386 VGND VGND VPWR VPWR sky130_fd_sc_hd__decap_6
XFILLER_4_51 VGND VGND VPWR VPWR sky130_fd_sc_hd__decap_4
XFILLER_11_408 VPWR VGND VPWR VGND sky130_ef_sc_hd__decap_12
XFILLER_2_139 VGND VGND VPWR VPWR sky130_fd_sc_hd__fill_1
XFILLER_10_474 VGND VGND VPWR VPWR sky130_fd_sc_hd__fill_2
XFILLER_10_430 VPWR VGND VPWR VGND sky130_ef_sc_hd__decap_12
XFILLER_6_489 VGND VGND VPWR VPWR sky130_fd_sc_hd__decap_8
XFILLER_6_445 VPWR VGND VPWR VGND sky130_ef_sc_hd__decap_12
XFILLER_6_401 VPWR VGND VPWR VGND sky130_ef_sc_hd__decap_12
XTAP_TAPCELL_ROW_0_30 VGND VPWR sky130_fd_sc_hd__tapvpwrvgnd_1
XTAP_TAPCELL_ROW_0_41 VGND VPWR sky130_fd_sc_hd__tapvpwrvgnd_1
XFILLER_6_253 VPWR VGND VPWR VGND sky130_ef_sc_hd__decap_12
X_098_ NN4END[5] VGND VGND VPWR VPWR net90 sky130_fd_sc_hd__clkbuf_1
XFILLER_0_429 VPWR VGND VPWR VGND sky130_ef_sc_hd__decap_12
XFILLER_10_83 VGND VGND VPWR VPWR sky130_fd_sc_hd__fill_1
X_021_ FrameData[21] VGND VGND VPWR VPWR net14 sky130_fd_sc_hd__clkbuf_2
XPHY_EDGE_ROW_11_Left_23 VGND VGND VPWR VPWR sky130_fd_sc_hd__decap_3
XTAP_TAPCELL_ROW_6_95 VGND VPWR sky130_fd_sc_hd__tapvpwrvgnd_1
Xoutput38 net38 VGND VGND VPWR VPWR FrameStrobe_O[14] sky130_fd_sc_hd__buf_2
Xoutput49 net49 VGND VGND VPWR VPWR FrameStrobe_O[6] sky130_fd_sc_hd__buf_2
Xoutput16 net16 VGND VGND VPWR VPWR FrameData_O[23] sky130_fd_sc_hd__buf_2
Xoutput27 net27 VGND VGND VPWR VPWR FrameData_O[4] sky130_fd_sc_hd__buf_2
XFILLER_11_7 VPWR VGND VPWR VGND sky130_ef_sc_hd__decap_12
X_004_ FrameData[4] VGND VGND VPWR VPWR net27 sky130_fd_sc_hd__buf_1
XFILLER_7_370 VPWR VGND VPWR VGND sky130_ef_sc_hd__decap_12
XFILLER_7_51 VGND VGND VPWR VPWR sky130_fd_sc_hd__decap_4
XTAP_TAPCELL_ROW_8_112 VGND VPWR sky130_fd_sc_hd__tapvpwrvgnd_1
XTAP_TAPCELL_ROW_3_63 VGND VPWR sky130_fd_sc_hd__tapvpwrvgnd_1
XTAP_TAPCELL_ROW_11_139 VGND VPWR sky130_fd_sc_hd__tapvpwrvgnd_1
XFILLER_5_104 VGND VGND VPWR VPWR sky130_fd_sc_hd__decap_4
XFILLER_9_421 VGND VGND VPWR VPWR sky130_fd_sc_hd__decap_8
XFILLER_4_85 VPWR VGND VPWR VGND sky130_ef_sc_hd__decap_12
XFILLER_10_442 VPWR VGND VPWR VGND sky130_ef_sc_hd__decap_12
XFILLER_6_457 VPWR VGND VPWR VGND sky130_ef_sc_hd__decap_12
XFILLER_6_413 VGND VGND VPWR VPWR sky130_fd_sc_hd__decap_6
XTAP_TAPCELL_ROW_0_31 VGND VPWR sky130_fd_sc_hd__tapvpwrvgnd_1
XFILLER_1_195 VGND VGND VPWR VPWR sky130_fd_sc_hd__decap_3
XFILLER_3_405 VPWR VGND VPWR VGND sky130_ef_sc_hd__decap_12
XFILLER_6_265 VPWR VGND VPWR VGND sky130_ef_sc_hd__decap_12
X_097_ NN4END[6] VGND VGND VPWR VPWR net104 sky130_fd_sc_hd__buf_1
XFILLER_10_73 VGND VGND VPWR VPWR sky130_fd_sc_hd__fill_1
X_020_ FrameData[20] VGND VGND VPWR VPWR net13 sky130_fd_sc_hd__buf_1
XFILLER_3_279 VGND VGND VPWR VPWR sky130_fd_sc_hd__fill_1
Xoutput17 net17 VGND VGND VPWR VPWR FrameData_O[24] sky130_fd_sc_hd__buf_2
Xoutput39 net39 VGND VGND VPWR VPWR FrameStrobe_O[15] sky130_fd_sc_hd__buf_2
Xoutput28 net28 VGND VGND VPWR VPWR FrameData_O[5] sky130_fd_sc_hd__buf_2
X_003_ FrameData[3] VGND VGND VPWR VPWR net26 sky130_fd_sc_hd__buf_1
XFILLER_7_393 VPWR VGND VPWR VGND sky130_ef_sc_hd__decap_12
XFILLER_7_382 VGND VGND VPWR VPWR sky130_fd_sc_hd__decap_8
XTAP_TAPCELL_ROW_8_113 VGND VPWR sky130_fd_sc_hd__tapvpwrvgnd_1
XFILLER_4_363 VGND VGND VPWR VPWR sky130_fd_sc_hd__fill_1
XTAP_TAPCELL_ROW_3_64 VGND VPWR sky130_fd_sc_hd__tapvpwrvgnd_1
XFILLER_4_20 VGND VGND VPWR VPWR sky130_fd_sc_hd__decap_8
XFILLER_4_97 VPWR VGND VPWR VGND sky130_ef_sc_hd__decap_12
XFILLER_10_454 VPWR VGND VPWR VGND sky130_ef_sc_hd__decap_12
XFILLER_10_421 VGND VGND VPWR VPWR sky130_fd_sc_hd__decap_4
XFILLER_6_469 VGND VGND VPWR VPWR sky130_fd_sc_hd__decap_6
XTAP_TAPCELL_ROW_0_32 VGND VPWR sky130_fd_sc_hd__tapvpwrvgnd_1
XFILLER_3_417 VGND VGND VPWR VPWR sky130_fd_sc_hd__decap_6
XFILLER_3_428 VPWR VGND VPWR VGND sky130_ef_sc_hd__decap_12
XFILLER_10_251 VGND VGND VPWR VPWR sky130_fd_sc_hd__fill_1
XFILLER_6_277 VPWR VGND VPWR VGND sky130_ef_sc_hd__decap_12
X_096_ NN4END[7] VGND VGND VPWR VPWR net103 sky130_fd_sc_hd__buf_1
XFILLER_10_85 VPWR VGND VPWR VGND sky130_ef_sc_hd__decap_12
XFILLER_10_41 VPWR VGND VPWR VGND sky130_ef_sc_hd__decap_12
XFILLER_3_225 VPWR VGND VPWR VGND sky130_ef_sc_hd__decap_12
Xoutput18 net18 VGND VGND VPWR VPWR FrameData_O[25] sky130_fd_sc_hd__buf_2
X_079_ N4END[8] VGND VGND VPWR VPWR net86 sky130_fd_sc_hd__buf_1
Xoutput29 net29 VGND VGND VPWR VPWR FrameData_O[6] sky130_fd_sc_hd__buf_2
XFILLER_2_280 VPWR VGND VPWR VGND sky130_ef_sc_hd__decap_12
X_002_ FrameData[2] VGND VGND VPWR VPWR net23 sky130_fd_sc_hd__buf_1
XPHY_EDGE_ROW_5_Right_5 VGND VGND VPWR VPWR sky130_fd_sc_hd__decap_3
XTAP_TAPCELL_ROW_3_65 VGND VPWR sky130_fd_sc_hd__tapvpwrvgnd_1
XTAP_TAPCELL_ROW_10_130 VGND VPWR sky130_fd_sc_hd__tapvpwrvgnd_1
XFILLER_9_434 VPWR VGND VPWR VGND sky130_ef_sc_hd__decap_12
XFILLER_9_412 VGND VGND VPWR VPWR sky130_fd_sc_hd__decap_6
XFILLER_2_109 VPWR VGND VPWR VGND sky130_ef_sc_hd__decap_12
XFILLER_4_43 VGND VGND VPWR VPWR sky130_fd_sc_hd__decap_4
XFILLER_10_477 VGND VGND VPWR VPWR sky130_fd_sc_hd__decap_3
XFILLER_10_466 VGND VGND VPWR VPWR sky130_fd_sc_hd__decap_8
XTAP_TAPCELL_ROW_0_33 VGND VPWR sky130_fd_sc_hd__tapvpwrvgnd_1
XFILLER_9_242 VPWR VGND VPWR VGND sky130_ef_sc_hd__decap_12
XFILLER_11_208 VPWR VGND VPWR VGND sky130_ef_sc_hd__decap_12
X_095_ NN4END[8] VGND VGND VPWR VPWR net102 sky130_fd_sc_hd__clkbuf_1
XFILLER_6_289 VPWR VGND VPWR VGND sky130_ef_sc_hd__decap_12
XFILLER_1_55 VGND VGND VPWR VPWR sky130_fd_sc_hd__fill_1
XFILLER_10_53 VPWR VGND VPWR VGND sky130_ef_sc_hd__decap_12
XTAP_TAPCELL_ROW_6_87 VGND VPWR sky130_fd_sc_hd__tapvpwrvgnd_1
XFILLER_3_237 VPWR VGND VPWR VGND sky130_ef_sc_hd__decap_12
X_078_ N4END[9] VGND VGND VPWR VPWR net85 sky130_fd_sc_hd__buf_1
XFILLER_2_292 VGND VGND VPWR VPWR sky130_fd_sc_hd__decap_4
Xoutput19 net19 VGND VGND VPWR VPWR FrameData_O[26] sky130_fd_sc_hd__buf_2
XFILLER_8_307 VGND VGND VPWR VPWR sky130_fd_sc_hd__fill_1
X_001_ FrameData[1] VGND VGND VPWR VPWR net12 sky130_fd_sc_hd__buf_1
XFILLER_11_391 VGND VGND VPWR VPWR sky130_fd_sc_hd__fill_1
XPHY_EDGE_ROW_11_Right_11 VGND VGND VPWR VPWR sky130_fd_sc_hd__decap_3
XFILLER_4_365 VPWR VGND VPWR VGND sky130_ef_sc_hd__decap_12
XFILLER_4_321 VPWR VGND VPWR VGND sky130_ef_sc_hd__decap_12
XTAP_TAPCELL_ROW_3_66 VGND VPWR sky130_fd_sc_hd__tapvpwrvgnd_1
XFILLER_7_181 VPWR VGND VPWR VGND sky130_ef_sc_hd__decap_12
XFILLER_5_129 VGND VGND VPWR VPWR sky130_fd_sc_hd__decap_8
XTAP_TAPCELL_ROW_10_131 VGND VPWR sky130_fd_sc_hd__tapvpwrvgnd_1
XFILLER_9_446 VGND VGND VPWR VPWR sky130_fd_sc_hd__fill_2
XFILLER_4_195 VGND VGND VPWR VPWR sky130_fd_sc_hd__fill_1
XFILLER_4_11 VGND VGND VPWR VPWR sky130_fd_sc_hd__decap_3
XFILLER_4_55 VGND VGND VPWR VPWR sky130_fd_sc_hd__fill_1
XFILLER_9_254 VPWR VGND VPWR VGND sky130_ef_sc_hd__decap_12
XFILLER_9_221 VGND VGND VPWR VPWR sky130_fd_sc_hd__decap_3
XFILLER_1_187 VGND VGND VPWR VPWR sky130_fd_sc_hd__decap_8
XTAP_TAPCELL_ROW_0_34 VGND VPWR sky130_fd_sc_hd__tapvpwrvgnd_1
XFILLER_5_493 VGND VGND VPWR VPWR sky130_fd_sc_hd__decap_3
XPHY_EDGE_ROW_3_Left_15 VGND VGND VPWR VPWR sky130_fd_sc_hd__decap_3
X_094_ NN4END[9] VGND VGND VPWR VPWR net101 sky130_fd_sc_hd__buf_1
XFILLER_10_253 VPWR VGND VPWR VGND sky130_ef_sc_hd__decap_12
XFILLER_2_485 VGND VGND VPWR VPWR sky130_fd_sc_hd__decap_3
XFILLER_10_65 VGND VGND VPWR VPWR sky130_fd_sc_hd__decap_8
XFILLER_3_249 VPWR VGND VPWR VGND sky130_ef_sc_hd__decap_12
X_077_ N4END[10] VGND VGND VPWR VPWR net84 sky130_fd_sc_hd__clkbuf_1
XTAP_TAPCELL_ROW_6_88 VGND VPWR sky130_fd_sc_hd__tapvpwrvgnd_1
XFILLER_7_55 VGND VGND VPWR VPWR sky130_fd_sc_hd__fill_1
X_000_ FrameData[0] VGND VGND VPWR VPWR net1 sky130_fd_sc_hd__clkbuf_2
XTAP_TAPCELL_ROW_8_105 VGND VPWR sky130_fd_sc_hd__tapvpwrvgnd_1
XFILLER_4_377 VPWR VGND VPWR VGND sky130_ef_sc_hd__decap_12
XFILLER_4_333 VPWR VGND VPWR VGND sky130_ef_sc_hd__decap_12
XTAP_TAPCELL_ROW_3_67 VGND VPWR sky130_fd_sc_hd__tapvpwrvgnd_1
XFILLER_7_193 VPWR VGND VPWR VGND sky130_ef_sc_hd__decap_12
XFILLER_5_108 VGND VGND VPWR VPWR sky130_fd_sc_hd__fill_1
XFILLER_1_325 VGND VGND VPWR VPWR sky130_fd_sc_hd__fill_1
XFILLER_1_358 VPWR VGND VPWR VGND sky130_ef_sc_hd__decap_12
XFILLER_4_141 VPWR VGND VPWR VGND sky130_ef_sc_hd__decap_12
XFILLER_10_402 VPWR VGND VPWR VGND sky130_ef_sc_hd__decap_12
XFILLER_9_266 VPWR VGND VPWR VGND sky130_ef_sc_hd__decap_12
XFILLER_8_3 VPWR VGND VPWR VGND sky130_ef_sc_hd__decap_12
XFILLER_1_111 VGND VGND VPWR VPWR sky130_fd_sc_hd__fill_1
XTAP_TAPCELL_ROW_0_24 VGND VPWR sky130_fd_sc_hd__tapvpwrvgnd_1
XTAP_TAPCELL_ROW_0_35 VGND VPWR sky130_fd_sc_hd__tapvpwrvgnd_1
XFILLER_5_461 VPWR VGND VPWR VGND sky130_ef_sc_hd__decap_12
X_093_ NN4END[10] VGND VGND VPWR VPWR net100 sky130_fd_sc_hd__clkbuf_1
XFILLER_10_265 VGND VGND VPWR VPWR sky130_fd_sc_hd__fill_1
XFILLER_1_57 VPWR VGND VPWR VGND sky130_ef_sc_hd__decap_12
XFILLER_2_475 VGND VGND VPWR VPWR sky130_fd_sc_hd__fill_1
XFILLER_3_206 VPWR VGND VPWR VGND sky130_ef_sc_hd__decap_12
XTAP_TAPCELL_ROW_6_89 VGND VPWR sky130_fd_sc_hd__tapvpwrvgnd_1
X_076_ N4END[11] VGND VGND VPWR VPWR net83 sky130_fd_sc_hd__buf_1
XFILLER_0_209 VGND VGND VPWR VPWR sky130_fd_sc_hd__decap_3
XFILLER_8_309 VPWR VGND VPWR VGND sky130_ef_sc_hd__decap_12
XFILLER_11_393 VGND VGND VPWR VPWR sky130_fd_sc_hd__decap_8
X_059_ N2MID[4] VGND VGND VPWR VPWR net60 sky130_fd_sc_hd__buf_1
XFILLER_8_139 VGND VGND VPWR VPWR sky130_fd_sc_hd__fill_1
XTAP_TAPCELL_ROW_8_106 VGND VPWR sky130_fd_sc_hd__tapvpwrvgnd_1
XTAP_TAPCELL_ROW_3_68 VGND VPWR sky130_fd_sc_hd__tapvpwrvgnd_1
XPHY_EDGE_ROW_9_Right_9 VGND VGND VPWR VPWR sky130_fd_sc_hd__decap_3
XFILLER_7_161 VGND VGND VPWR VPWR sky130_fd_sc_hd__decap_6
XFILLER_4_389 VPWR VGND VPWR VGND sky130_ef_sc_hd__decap_12
XFILLER_4_345 VPWR VGND VPWR VGND sky130_ef_sc_hd__decap_12
XFILLER_1_337 VPWR VGND VPWR VGND sky130_ef_sc_hd__decap_12