*SPEF "ieee 1481-1999"
*DESIGN "S_WARMBOOT"
*DATE "17:01:23 Thursday April 03, 2025"
*VENDOR "The OpenROAD Project"
*PROGRAM "OpenROAD"
*VERSION "87af90f72f3f9be1fdfa1d886f0dd8d8b8f34694"
*DESIGN_FLOW "NAME_SCOPE LOCAL" "PIN_CAP NONE"
*DIVIDER /
*DELIMITER :
*BUS_DELIMITER []
*T_UNIT 1 NS
*C_UNIT 1 PF
*R_UNIT 1 OHM
*L_UNIT 1 HENRY

*NAME_MAP
*1 BOOT_top
*2 CONFIGURED_top
*3 net167
*4 FrameData[0]
*5 FrameData[10]
*6 FrameData[11]
*7 FrameData[12]
*8 FrameData[13]
*9 FrameData[14]
*10 FrameData[15]
*11 FrameData[16]
*12 FrameData[17]
*13 FrameData[18]
*14 FrameData[19]
*15 FrameData[1]
*16 FrameData[20]
*17 FrameData[21]
*18 FrameData[22]
*19 FrameData[23]
*20 FrameData[24]
*21 FrameData[25]
*22 FrameData[26]
*23 FrameData[27]
*24 FrameData[28]
*25 FrameData[29]
*26 FrameData[2]
*27 FrameData[30]
*28 FrameData[31]
*29 FrameData[3]
*30 FrameData[4]
*31 FrameData[5]
*32 FrameData[6]
*33 FrameData[7]
*34 FrameData[8]
*35 FrameData[9]
*36 FrameData_O[0]
*37 FrameData_O[10]
*38 FrameData_O[11]
*39 FrameData_O[12]
*40 FrameData_O[13]
*41 FrameData_O[14]
*42 FrameData_O[15]
*43 FrameData_O[16]
*44 FrameData_O[17]
*45 FrameData_O[18]
*46 FrameData_O[19]
*47 FrameData_O[1]
*48 FrameData_O[20]
*49 FrameData_O[21]
*50 FrameData_O[22]
*51 FrameData_O[23]
*52 FrameData_O[24]
*53 FrameData_O[25]
*54 FrameData_O[26]
*55 FrameData_O[27]
*56 FrameData_O[28]
*57 FrameData_O[29]
*58 FrameData_O[2]
*59 FrameData_O[30]
*60 FrameData_O[31]
*61 FrameData_O[3]
*62 FrameData_O[4]
*63 FrameData_O[5]
*64 FrameData_O[6]
*65 FrameData_O[7]
*66 FrameData_O[8]
*67 FrameData_O[9]
*68 FrameStrobe[0]
*69 FrameStrobe[10]
*70 FrameStrobe[11]
*71 FrameStrobe[12]
*72 FrameStrobe[13]
*73 FrameStrobe[14]
*74 FrameStrobe[15]
*75 FrameStrobe[16]
*76 FrameStrobe[17]
*77 FrameStrobe[18]
*78 FrameStrobe[19]
*79 FrameStrobe[1]
*80 FrameStrobe[2]
*81 FrameStrobe[3]
*82 FrameStrobe[4]
*83 FrameStrobe[5]
*84 FrameStrobe[6]
*85 FrameStrobe[7]
*86 FrameStrobe[8]
*87 FrameStrobe[9]
*88 FrameStrobe_O[0]
*89 FrameStrobe_O[10]
*90 FrameStrobe_O[11]
*91 FrameStrobe_O[12]
*92 FrameStrobe_O[13]
*93 FrameStrobe_O[14]
*94 FrameStrobe_O[15]
*95 FrameStrobe_O[16]
*96 FrameStrobe_O[17]
*97 FrameStrobe_O[18]
*98 FrameStrobe_O[19]
*99 FrameStrobe_O[1]
*100 FrameStrobe_O[2]
*101 FrameStrobe_O[3]
*102 FrameStrobe_O[4]
*103 FrameStrobe_O[5]
*104 FrameStrobe_O[6]
*105 FrameStrobe_O[7]
*106 FrameStrobe_O[8]
*107 FrameStrobe_O[9]
*108 N1BEG[0]
*109 N1BEG[1]
*110 N1BEG[2]
*111 N1BEG[3]
*112 N2BEG[0]
*113 N2BEG[1]
*114 N2BEG[2]
*115 N2BEG[3]
*116 N2BEG[4]
*117 N2BEG[5]
*118 N2BEG[6]
*119 N2BEG[7]
*120 N2BEGb[0]
*121 N2BEGb[1]
*122 N2BEGb[2]
*123 N2BEGb[3]
*124 N2BEGb[4]
*125 N2BEGb[5]
*126 N2BEGb[6]
*127 N2BEGb[7]
*128 N4BEG[0]
*129 N4BEG[10]
*130 N4BEG[11]
*131 N4BEG[12]
*132 N4BEG[13]
*133 N4BEG[14]
*134 N4BEG[15]
*135 N4BEG[1]
*136 N4BEG[2]
*137 N4BEG[3]
*138 N4BEG[4]
*139 N4BEG[5]
*140 N4BEG[6]
*141 N4BEG[7]
*142 N4BEG[8]
*143 N4BEG[9]
*144 NN4BEG[0]
*145 NN4BEG[10]
*146 NN4BEG[11]
*147 NN4BEG[12]
*148 NN4BEG[13]
*149 NN4BEG[14]
*150 NN4BEG[15]
*151 NN4BEG[1]
*152 NN4BEG[2]
*153 NN4BEG[3]
*154 NN4BEG[4]
*155 NN4BEG[5]
*156 NN4BEG[6]
*157 NN4BEG[7]
*158 NN4BEG[8]
*159 NN4BEG[9]
*160 RESET_top
*161 S1END[0]
*162 S1END[1]
*163 S1END[2]
*164 S1END[3]
*165 S2END[0]
*166 S2END[1]
*167 S2END[2]
*168 S2END[3]
*169 S2END[4]
*170 S2END[5]
*171 S2END[6]
*172 S2END[7]
*173 S2MID[0]
*174 S2MID[1]
*175 S2MID[2]
*176 S2MID[3]
*177 S2MID[4]
*178 S2MID[5]
*179 S2MID[6]
*180 S2MID[7]
*181 S4END[0]
*182 S4END[10]
*183 S4END[11]
*184 S4END[12]
*185 S4END[13]
*186 S4END[14]
*187 S4END[15]
*188 S4END[1]
*189 S4END[2]
*190 S4END[3]
*191 S4END[4]
*192 S4END[5]
*193 S4END[6]
*194 S4END[7]
*195 S4END[8]
*196 S4END[9]
*197 SLOT_top0
*198 SLOT_top1
*199 SLOT_top2
*200 SLOT_top3
*201 SS4END[0]
*202 SS4END[10]
*203 SS4END[11]
*204 SS4END[12]
*205 SS4END[13]
*206 SS4END[14]
*207 SS4END[15]
*208 SS4END[1]
*209 SS4END[2]
*210 SS4END[3]
*211 SS4END[4]
*212 SS4END[5]
*213 SS4END[6]
*214 SS4END[7]
*215 SS4END[8]
*216 SS4END[9]
*217 UserCLK
*218 UserCLKo
*221 Inst_S_WARMBOOT_ConfigMem\.Inst_frame0_bit13\.Q
*222 Inst_S_WARMBOOT_ConfigMem\.Inst_frame0_bit14\.Q
*223 Inst_S_WARMBOOT_ConfigMem\.Inst_frame0_bit15\.Q
*224 Inst_S_WARMBOOT_ConfigMem\.Inst_frame0_bit16\.Q
*225 Inst_S_WARMBOOT_ConfigMem\.Inst_frame0_bit17\.Q
*226 Inst_S_WARMBOOT_ConfigMem\.Inst_frame0_bit18\.Q
*227 Inst_S_WARMBOOT_ConfigMem\.Inst_frame0_bit19\.Q
*228 Inst_S_WARMBOOT_ConfigMem\.Inst_frame0_bit20\.Q
*229 Inst_S_WARMBOOT_ConfigMem\.Inst_frame0_bit21\.Q
*230 Inst_S_WARMBOOT_ConfigMem\.Inst_frame0_bit22\.Q
*231 Inst_S_WARMBOOT_ConfigMem\.Inst_frame0_bit23\.Q
*232 Inst_S_WARMBOOT_ConfigMem\.Inst_frame0_bit24\.Q
*233 Inst_S_WARMBOOT_ConfigMem\.Inst_frame0_bit25\.Q
*234 Inst_S_WARMBOOT_ConfigMem\.Inst_frame0_bit26\.Q
*235 Inst_S_WARMBOOT_ConfigMem\.Inst_frame0_bit27\.Q
*236 Inst_S_WARMBOOT_ConfigMem\.Inst_frame0_bit28\.Q
*237 Inst_S_WARMBOOT_ConfigMem\.Inst_frame0_bit29\.Q
*238 Inst_S_WARMBOOT_ConfigMem\.Inst_frame0_bit30\.Q
*239 Inst_S_WARMBOOT_ConfigMem\.Inst_frame0_bit31\.Q
*240 Inst_S_WARMBOOT_switch_matrix\.N1BEG0
*241 Inst_S_WARMBOOT_switch_matrix\.N1BEG1
*242 Inst_S_WARMBOOT_switch_matrix\.N1BEG2
*243 Inst_S_WARMBOOT_switch_matrix\.N1BEG3
*244 _000_
*245 _001_
*246 _002_
*247 _003_
*248 _004_
*249 _005_
*250 _006_
*251 _007_
*252 _008_
*253 _009_
*254 _010_
*255 _011_
*256 _012_
*257 _013_
*258 _014_
*259 _015_
*260 net1
*261 net10
*262 net100
*263 net101
*264 net102
*265 net103
*266 net104
*267 net105
*268 net106
*269 net107
*270 net108
*271 net109
*272 net11
*273 net110
*274 net111
*275 net112
*276 net113
*277 net114
*278 net115
*279 net116
*280 net117
*281 net118
*282 net119
*283 net12
*284 net120
*285 net121
*286 net122
*287 net123
*288 net124
*289 net125
*290 net126
*291 net127
*292 net128
*293 net129
*294 net13
*295 net130
*296 net131
*297 net132
*298 net133
*299 net134
*300 net135
*301 net136
*302 net137
*303 net138
*304 net139
*305 net14
*306 net140
*307 net141
*308 net142
*309 net143
*310 net144
*311 net145
*312 net146
*313 net147
*314 net148
*315 net149
*316 net15
*317 net150
*318 net151
*319 net152
*320 net153
*321 net154
*322 net155
*323 net156
*324 net157
*325 net158
*326 net159
*327 net16
*328 net160
*329 net161
*330 net162
*331 net163
*332 net164
*333 net165
*334 net166
*335 net17
*336 net18
*337 net19
*338 net2
*339 net20
*340 net21
*341 net22
*342 net23
*343 net24
*344 net25
*345 net26
*346 net27
*347 net28
*348 net29
*349 net3
*350 net30
*351 net31
*352 net32
*353 net33
*354 net34
*355 net35
*356 net36
*357 net37
*358 net38
*359 net39
*360 net4
*361 net40
*362 net41
*363 net42
*364 net43
*365 net44
*366 net45
*367 net46
*368 net47
*369 net48
*370 net49
*371 net5
*372 net50
*373 net51
*374 net52
*375 net53
*376 net54
*377 net55
*378 net56
*379 net57
*380 net58
*381 net59
*382 net6
*383 net60
*384 net61
*385 net62
*386 net63
*387 net64
*388 net65
*389 net66
*390 net67
*391 net68
*392 net69
*393 net7
*394 net70
*395 net71
*396 net72
*397 net73
*398 net74
*399 net75
*400 net76
*401 net77
*402 net78
*403 net79
*404 net8
*405 net80
*406 net81
*407 net82
*408 net83
*409 net84
*410 net85
*411 net86
*412 net87
*413 net88
*414 net89
*415 net9
*416 net90
*417 net91
*418 net92
*419 net93
*420 net94
*421 net95
*422 net96
*423 net97
*424 net98
*425 net99
*426 ANTENNA_1
*427 ANTENNA_10
*428 ANTENNA_11
*429 ANTENNA_12
*430 ANTENNA_13
*431 ANTENNA_14
*432 ANTENNA_15
*433 ANTENNA_16
*434 ANTENNA_17
*435 ANTENNA_18
*436 ANTENNA_19
*437 ANTENNA_2
*438 ANTENNA_20
*439 ANTENNA_21
*440 ANTENNA_22
*441 ANTENNA_23
*442 ANTENNA_24
*443 ANTENNA_25
*444 ANTENNA_26
*445 ANTENNA_27
*446 ANTENNA_28
*447 ANTENNA_29
*448 ANTENNA_3
*449 ANTENNA_30
*450 ANTENNA_31
*451 ANTENNA_32
*452 ANTENNA_33
*453 ANTENNA_34
*454 ANTENNA_35
*455 ANTENNA_36
*456 ANTENNA_37
*457 ANTENNA_38
*458 ANTENNA_39
*459 ANTENNA_4
*460 ANTENNA_40
*461 ANTENNA_41
*462 ANTENNA_42
*463 ANTENNA_43
*464 ANTENNA_44
*465 ANTENNA_45
*466 ANTENNA_46
*467 ANTENNA_47
*468 ANTENNA_48
*469 ANTENNA_49
*470 ANTENNA_5
*471 ANTENNA_50
*472 ANTENNA_51
*473 ANTENNA_52
*474 ANTENNA_53
*475 ANTENNA_54
*476 ANTENNA_55
*477 ANTENNA_56
*478 ANTENNA_57
*479 ANTENNA_58
*480 ANTENNA_59
*481 ANTENNA_6
*482 ANTENNA_60
*483 ANTENNA_61
*484 ANTENNA_62
*485 ANTENNA_63
*486 ANTENNA_7
*487 ANTENNA_8
*488 ANTENNA_9
*489 FILLER_0_0
*490 FILLER_0_104
*491 FILLER_0_108
*492 FILLER_0_11
*493 FILLER_0_113
*494 FILLER_0_120
*495 FILLER_0_127
*496 FILLER_0_134
*497 FILLER_0_141
*498 FILLER_0_148
*499 FILLER_0_155
*500 FILLER_0_162
*501 FILLER_0_169
*502 FILLER_0_17
*503 FILLER_0_176
*504 FILLER_0_180
*505 FILLER_0_185
*506 FILLER_0_192
*507 FILLER_0_199
*508 FILLER_0_206
*509 FILLER_0_213
*510 FILLER_0_220
*511 FILLER_0_227
*512 FILLER_0_234
*513 FILLER_0_24
*514 FILLER_0_241
*515 FILLER_0_248
*516 FILLER_0_255
*517 FILLER_0_262
*518 FILLER_0_269
*519 FILLER_0_276
*520 FILLER_0_28
*521 FILLER_0_283
*522 FILLER_0_290
*523 FILLER_0_297
*524 FILLER_0_304
*525 FILLER_0_311
*526 FILLER_0_318
*527 FILLER_0_325
*528 FILLER_0_33
*529 FILLER_0_332
*530 FILLER_0_339
*531 FILLER_0_346
*532 FILLER_0_353
*533 FILLER_0_360
*534 FILLER_0_367
*535 FILLER_0_374
*536 FILLER_0_381
*537 FILLER_0_388
*538 FILLER_0_40
*539 FILLER_0_413
*540 FILLER_0_420
*541 FILLER_0_427
*542 FILLER_0_434
*543 FILLER_0_44
*544 FILLER_0_49
*545 FILLER_0_56
*546 FILLER_0_60
*547 FILLER_0_65
*548 FILLER_0_7
*549 FILLER_0_72
*550 FILLER_0_76
*551 FILLER_0_81
*552 FILLER_0_89
*553 FILLER_0_97
*554 FILLER_10_227
*555 FILLER_10_24
*556 FILLER_10_277
*557 FILLER_10_305
*558 FILLER_10_31
*559 FILLER_10_312
*560 FILLER_10_365
*561 FILLER_10_372
*562 FILLER_10_379
*563 FILLER_10_38
*564 FILLER_10_386
*565 FILLER_10_393
*566 FILLER_10_400
*567 FILLER_10_407
*568 FILLER_10_414
*569 FILLER_10_421
*570 FILLER_10_423
*571 FILLER_10_435
*572 FILLER_10_45
*573 FILLER_10_52
*574 FILLER_10_59
*575 FILLER_10_66
*576 FILLER_10_73
*577 FILLER_10_80
*578 FILLER_10_87
*579 FILLER_1_0
*580 FILLER_1_103
*581 FILLER_1_110
*582 FILLER_1_117
*583 FILLER_1_124
*584 FILLER_1_135
*585 FILLER_1_14
*586 FILLER_1_142
*587 FILLER_1_146
*588 FILLER_1_158
*589 FILLER_1_165
*590 FILLER_1_172
*591 FILLER_1_197
*592 FILLER_1_202
*593 FILLER_1_209
*594 FILLER_1_21
*595 FILLER_1_216
*596 FILLER_1_223
*597 FILLER_1_230
*598 FILLER_1_237
*599 FILLER_1_239
*600 FILLER_1_244
*601 FILLER_1_251
*602 FILLER_1_258
*603 FILLER_1_265
*604 FILLER_1_272
*605 FILLER_1_279
*606 FILLER_1_28
*607 FILLER_1_286
*608 FILLER_1_293
*609 FILLER_1_300
*610 FILLER_1_307
*611 FILLER_1_323
*612 FILLER_1_330
*613 FILLER_1_337
*614 FILLER_1_344
*615 FILLER_1_35
*616 FILLER_1_351
*617 FILLER_1_358
*618 FILLER_1_365
*619 FILLER_1_370
*620 FILLER_1_377
*621 FILLER_1_393
*622 FILLER_1_419
*623 FILLER_1_42
*624 FILLER_1_426
*625 FILLER_1_433
*626 FILLER_1_438
*627 FILLER_1_445
*628 FILLER_1_49
*629 FILLER_1_56
*630 FILLER_1_63
*631 FILLER_1_7
*632 FILLER_1_85
*633 FILLER_2_0
*634 FILLER_2_106
*635 FILLER_2_14
*636 FILLER_2_206
*637 FILLER_2_21
*638 FILLER_2_217
*639 FILLER_2_224
*640 FILLER_2_231
*641 FILLER_2_238
*642 FILLER_2_257
*643 FILLER_2_273
*644 FILLER_2_28
*645 FILLER_2_296
*646 FILLER_2_300
*647 FILLER_2_339
*648 FILLER_2_346
*649 FILLER_2_35
*650 FILLER_2_353
*651 FILLER_2_360
*652 FILLER_2_367
*653 FILLER_2_371
*654 FILLER_2_392
*655 FILLER_2_405
*656 FILLER_2_412
*657 FILLER_2_419
*658 FILLER_2_42
*659 FILLER_2_426
*660 FILLER_2_432
*661 FILLER_2_449
*662 FILLER_2_49
*663 FILLER_2_56
*664 FILLER_2_63
*665 FILLER_2_7
*666 FILLER_2_70
*667 FILLER_2_77
*668 FILLER_3_0
*669 FILLER_3_102
*670 FILLER_3_109
*671 FILLER_3_116
*672 FILLER_3_123
*673 FILLER_3_130
*674 FILLER_3_137
*675 FILLER_3_14
*676 FILLER_3_144
*677 FILLER_3_151
*678 FILLER_3_158
*679 FILLER_3_165
*680 FILLER_3_169
*681 FILLER_3_192
*682 FILLER_3_201
*683 FILLER_3_205
*684 FILLER_3_21
*685 FILLER_3_228
*686 FILLER_3_274
*687 FILLER_3_28
*688 FILLER_3_281
*689 FILLER_3_288
*690 FILLER_3_295
*691 FILLER_3_299
*692 FILLER_3_348
*693 FILLER_3_35
*694 FILLER_3_355
*695 FILLER_3_362
*696 FILLER_3_369
*697 FILLER_3_376
*698 FILLER_3_383
*699 FILLER_3_385
*700 FILLER_3_393
*701 FILLER_3_400
*702 FILLER_3_407
*703 FILLER_3_414
*704 FILLER_3_42
*705 FILLER_3_421
*706 FILLER_3_49
*707 FILLER_3_56
*708 FILLER_3_63
*709 FILLER_3_7
*710 FILLER_3_70
*711 FILLER_3_77
*712 FILLER_3_84
*713 FILLER_3_95
*714 FILLER_4_0
*715 FILLER_4_105
*716 FILLER_4_112
*717 FILLER_4_119
*718 FILLER_4_126
*719 FILLER_4_133
*720 FILLER_4_14
*721 FILLER_4_140
*722 FILLER_4_147
*723 FILLER_4_154
*724 FILLER_4_161
*725 FILLER_4_168
*726 FILLER_4_175
*727 FILLER_4_182
*728 FILLER_4_189
*729 FILLER_4_196
*730 FILLER_4_203
*731 FILLER_4_21
*732 FILLER_4_210
*733 FILLER_4_217
*734 FILLER_4_224
*735 FILLER_4_231
*736 FILLER_4_238
*737 FILLER_4_245
*738 FILLER_4_252
*739 FILLER_4_259
*740 FILLER_4_266
*741 FILLER_4_273
*742 FILLER_4_28
*743 FILLER_4_280
*744 FILLER_4_287
*745 FILLER_4_294
*746 FILLER_4_301
*747 FILLER_4_308
*748 FILLER_4_335
*749 FILLER_4_342
*750 FILLER_4_349
*751 FILLER_4_35
*752 FILLER_4_356
*753 FILLER_4_363
*754 FILLER_4_370
*755 FILLER_4_377
*756 FILLER_4_384
*757 FILLER_4_391
*758 FILLER_4_398
*759 FILLER_4_405
*760 FILLER_4_412
*761 FILLER_4_419
*762 FILLER_4_42
*763 FILLER_4_426
*764 FILLER_4_433
*765 FILLER_4_438
*766 FILLER_4_49
*767 FILLER_4_56
*768 FILLER_4_63
*769 FILLER_4_7
*770 FILLER_4_70
*771 FILLER_4_77
*772 FILLER_4_84
*773 FILLER_4_91
*774 FILLER_4_98
*775 FILLER_5_109
*776 FILLER_5_116
*777 FILLER_5_12
*778 FILLER_5_123
*779 FILLER_5_128
*780 FILLER_5_135
*781 FILLER_5_142
*782 FILLER_5_149
*783 FILLER_5_156
*784 FILLER_5_163
*785 FILLER_5_170
*786 FILLER_5_177
*787 FILLER_5_184
*788 FILLER_5_19
*789 FILLER_5_191
*790 FILLER_5_198
*791 FILLER_5_205
*792 FILLER_5_212
*793 FILLER_5_219
*794 FILLER_5_226
*795 FILLER_5_233
*796 FILLER_5_240
*797 FILLER_5_247
*798 FILLER_5_254
*799 FILLER_5_26
*800 FILLER_5_261
*801 FILLER_5_268
*802 FILLER_5_275
*803 FILLER_5_282
*804 FILLER_5_289
*805 FILLER_5_296
*806 FILLER_5_303
*807 FILLER_5_310
*808 FILLER_5_317
*809 FILLER_5_324
*810 FILLER_5_33
*811 FILLER_5_331
*812 FILLER_5_338
*813 FILLER_5_345
*814 FILLER_5_352
*815 FILLER_5_359
*816 FILLER_5_366
*817 FILLER_5_373
*818 FILLER_5_380
*819 FILLER_5_387
*820 FILLER_5_394
*821 FILLER_5_40
*822 FILLER_5_401
*823 FILLER_5_408
*824 FILLER_5_415
*825 FILLER_5_422
*826 FILLER_5_429
*827 FILLER_5_436
*828 FILLER_5_440
*829 FILLER_5_47
*830 FILLER_5_54
*831 FILLER_5_61
*832 FILLER_5_68
*833 FILLER_5_75
*834 FILLER_5_82
*835 FILLER_6_116
*836 FILLER_6_123
*837 FILLER_6_130
*838 FILLER_6_137
*839 FILLER_6_144
*840 FILLER_6_15
*841 FILLER_6_151
*842 FILLER_6_158
*843 FILLER_6_162
*844 FILLER_6_168
*845 FILLER_6_175
*846 FILLER_6_182
*847 FILLER_6_189
*848 FILLER_6_196
*849 FILLER_6_203
*850 FILLER_6_210
*851 FILLER_6_217
*852 FILLER_6_22
*853 FILLER_6_224
*854 FILLER_6_231
*855 FILLER_6_238
*856 FILLER_6_245
*857 FILLER_6_252
*858 FILLER_6_259
*859 FILLER_6_266
*860 FILLER_6_273
*861 FILLER_6_280
*862 FILLER_6_287
*863 FILLER_6_29
*864 FILLER_6_294
*865 FILLER_6_301
*866 FILLER_6_308
*867 FILLER_6_315
*868 FILLER_6_322
*869 FILLER_6_329
*870 FILLER_6_336
*871 FILLER_6_343
*872 FILLER_6_350
*873 FILLER_6_357
*874 FILLER_6_36
*875 FILLER_6_364
*876 FILLER_6_371
*877 FILLER_6_378
*878 FILLER_6_385
*879 FILLER_6_392
*880 FILLER_6_399
*881 FILLER_6_406
*882 FILLER_6_413
*883 FILLER_6_420
*884 FILLER_6_427
*885 FILLER_6_43
*886 FILLER_6_434
*887 FILLER_6_441
*888 FILLER_6_458
*889 FILLER_6_50
*890 FILLER_6_72
*891 FILLER_6_79
*892 FILLER_6_8
*893 FILLER_7_102
*894 FILLER_7_107
*895 FILLER_7_125
*896 FILLER_7_132
*897 FILLER_7_139
*898 FILLER_7_141
*899 FILLER_7_15
*900 FILLER_7_159
*901 FILLER_7_166
*902 FILLER_7_173
*903 FILLER_7_180
*904 FILLER_7_187
*905 FILLER_7_194
*906 FILLER_7_201
*907 FILLER_7_208
*908 FILLER_7_212
*909 FILLER_7_217
*910 FILLER_7_22
*911 FILLER_7_224
*912 FILLER_7_228
*913 FILLER_7_247
*914 FILLER_7_254
*915 FILLER_7_258
*916 FILLER_7_285
*917 FILLER_7_289
*918 FILLER_7_29
*919 FILLER_7_308
*920 FILLER_7_315
*921 FILLER_7_322
*922 FILLER_7_36
*923 FILLER_7_385
*924 FILLER_7_392
*925 FILLER_7_399
*926 FILLER_7_406
*927 FILLER_7_413
*928 FILLER_7_420
*929 FILLER_7_43
*930 FILLER_7_50
*931 FILLER_7_57
*932 FILLER_7_64
*933 FILLER_7_71
*934 FILLER_7_78
*935 FILLER_7_8
*936 FILLER_7_85
*937 FILLER_7_87
*938 FILLER_8_12
*939 FILLER_8_122
*940 FILLER_8_129
*941 FILLER_8_136
*942 FILLER_8_159
*943 FILLER_8_163
*944 FILLER_8_168
*945 FILLER_8_172
*946 FILLER_8_178
*947 FILLER_8_185
*948 FILLER_8_192
*949 FILLER_8_199
*950 FILLER_8_206
*951 FILLER_8_213
*952 FILLER_8_220
*953 FILLER_8_222
*954 FILLER_8_248
*955 FILLER_8_255
*956 FILLER_8_290
*957 FILLER_8_298
*958 FILLER_8_305
*959 FILLER_8_312
*960 FILLER_8_323
*961 FILLER_8_332
*962 FILLER_8_356
*963 FILLER_8_363
*964 FILLER_8_37
*965 FILLER_8_374
*966 FILLER_8_381
*967 FILLER_8_388
*968 FILLER_8_395
*969 FILLER_8_402
*970 FILLER_8_409
*971 FILLER_8_416
*972 FILLER_8_420
*973 FILLER_8_44
*974 FILLER_8_449
*975 FILLER_8_51
*976 FILLER_8_58
*977 FILLER_8_65
*978 FILLER_8_72
*979 FILLER_8_79
*980 FILLER_8_8
*981 FILLER_8_86
*982 FILLER_9_113
*983 FILLER_9_16
*984 FILLER_9_219
*985 FILLER_9_226
*986 FILLER_9_23
*987 FILLER_9_237
*988 FILLER_9_244
*989 FILLER_9_271
*990 FILLER_9_286
*991 FILLER_9_290
*992 FILLER_9_299
*993 FILLER_9_30
*994 FILLER_9_306
*995 FILLER_9_313
*996 FILLER_9_320
*997 FILLER_9_322
*998 FILLER_9_355
*999 FILLER_9_362
*1000 FILLER_9_369
*1001 FILLER_9_37
*1002 FILLER_9_376
*1003 FILLER_9_383
*1004 FILLER_9_390
*1005 FILLER_9_397
*1006 FILLER_9_404
*1007 FILLER_9_411
*1008 FILLER_9_418
*1009 FILLER_9_425
*1010 FILLER_9_44
*1011 FILLER_9_445
*1012 FILLER_9_51
*1013 FILLER_9_58
*1014 FILLER_9_65
*1015 FILLER_9_72
*1016 FILLER_9_79
*1017 FILLER_9_86
*1018 S_WARMBOOT_164
*1019 _016_
*1020 _017_
*1021 _018_
*1022 _019_
*1023 _020_
*1024 _021_
*1025 _022_
*1026 _023_
*1027 _024_
*1028 _025_
*1029 _026_
*1030 _027_
*1031 _028_
*1032 _029_
*1033 _030_
*1034 _031_
*1035 _032_
*1036 _033_
*1037 _034_
*1038 _035_
*1039 _036_
*1040 _037_
*1041 _038_
*1042 _039_
*1043 _040_
*1044 _041_
*1045 _042_
*1046 _043_
*1047 _044_
*1048 _045_
*1049 _046_
*1050 _047_
*1051 _048_
*1052 _049_
*1053 _050_
*1054 _051_
*1055 _052_
*1056 _053_
*1057 _054_
*1058 _055_
*1059 _056_
*1060 _057_
*1061 _058_
*1062 _059_
*1063 _061_
*1064 _062_
*1065 _063_
*1066 _064_
*1067 _065_
*1068 _066_
*1069 _067_
*1070 _068_
*1071 _069_
*1072 _070_
*1073 _071_
*1074 _072_
*1075 _073_
*1076 _074_
*1077 _075_
*1078 _076_
*1079 _077_
*1080 _078_
*1081 _079_
*1082 _080_
*1083 _081_
*1084 _082_
*1085 _083_
*1086 _084_
*1087 _085_
*1088 _086_
*1089 _087_
*1090 _088_
*1091 _089_
*1092 _090_
*1093 _091_
*1094 _092_
*1095 _093_
*1096 _094_
*1097 _095_
*1098 _096_
*1099 _097_
*1100 _098_
*1101 _099_
*1102 _100_
*1103 _101_
*1104 _102_
*1105 _103_
*1106 _104_
*1107 _105_
*1108 _106_
*1109 _107_
*1110 _108_
*1111 _109_
*1112 _110_
*1113 _111_
*1114 _112_
*1115 _113_
*1116 _114_
*1117 _115_
*1118 _116_
*1119 _117_
*1120 _118_
*1121 _119_
*1122 _120_
*1123 _121_
*1124 _122_
*1125 _123_
*1126 _124_
*1127 _125_
*1128 _126_
*1129 _127_
*1130 _128_
*1131 _129_
*1132 _130_
*1133 _131_
*1134 _132_
*1135 _133_
*1136 _134_
*1137 _135_
*1138 _136_
*1139 _137_
*1140 _138_
*1141 _139_
*1142 _140_
*1143 _141_
*1144 _142_
*1145 _143_
*1146 _144_
*1147 _145_
*1148 _146_
*1149 _147_
*1150 _148_
*1151 _149_
*1152 _150_
*1153 _151_
*1154 _152_
*1155 _153_
*1156 _154_
*1157 _155_
*1158 _156_
*1159 _157_
*1160 _158_
*1161 _159_
*1162 _160_
*1163 _161_
*1164 _162_
*1165 _163_
*1166 _164_
*1167 _165_
*1168 fanout7
*1169 fanout8
*1170 fanout9
*1171 input1
*1172 input10
*1173 input11
*1174 input12
*1175 input13
*1176 input14
*1177 input15
*1178 input16
*1179 input17
*1180 input18
*1181 input19
*1182 input2
*1183 input20
*1184 input21
*1185 input22
*1186 input23
*1187 input24
*1188 input25
*1189 input26
*1190 input27
*1191 input28
*1192 input29
*1193 input3
*1194 input30
*1195 input31
*1196 input32
*1197 input33
*1198 input34
*1199 input35
*1200 input36
*1201 input37
*1202 input38
*1203 input39
*1204 input4
*1205 input40
*1206 input41
*1207 input42
*1208 input43
*1209 input44
*1210 input45
*1211 input46
*1212 input47
*1213 input48
*1214 input49
*1215 input5
*1216 input50
*1217 input51
*1218 input52
*1219 input53
*1220 input6
*1221 input7
*1222 input8
*1223 input9
*1224 output100
*1225 output101
*1226 output102
*1227 output103
*1228 output104
*1229 output105
*1230 output106
*1231 output107
*1232 output108
*1233 output109
*1234 output110
*1235 output111
*1236 output112
*1237 output113
*1238 output114
*1239 output115
*1240 output116
*1241 output117
*1242 output118
*1243 output119
*1244 output120
*1245 output121
*1246 output122
*1247 output123
*1248 output124
*1249 output125
*1250 output126
*1251 output127
*1252 output128
*1253 output129
*1254 output130
*1255 output131
*1256 output132
*1257 output133
*1258 output134
*1259 output135
*1260 output136
*1261 output137
*1262 output138
*1263 output139
*1264 output140
*1265 output141
*1266 output142
*1267 output143
*1268 output144
*1269 output145
*1270 output146
*1271 output147
*1272 output148
*1273 output149
*1274 output150
*1275 output151
*1276 output152
*1277 output153
*1278 output154
*1279 output155
*1280 output156
*1281 output157
*1282 output158
*1283 output159
*1284 output160
*1285 output161
*1286 output162
*1287 output163
*1288 output54
*1289 output55
*1290 output56
*1291 output57
*1292 output58
*1293 output59
*1294 output60
*1295 output61
*1296 output62
*1297 output63
*1298 output64
*1299 output65
*1300 output66
*1301 output67
*1302 output68
*1303 output69
*1304 output70
*1305 output71
*1306 output72
*1307 output73
*1308 output74
*1309 output75
*1310 output76
*1311 output77
*1312 output78
*1313 output79
*1314 output80
*1315 output81
*1316 output82
*1317 output83
*1318 output84
*1319 output85
*1320 output86
*1321 output87
*1322 output88
*1323 output89
*1324 output90
*1325 output91
*1326 output92
*1327 output93
*1328 output94
*1329 output95
*1330 output96
*1331 output97
*1332 output98
*1333 output99

*PORTS
BOOT_top O
CONFIGURED_top I
Co O
FrameData[0] I
FrameData[10] I
FrameData[11] I
FrameData[12] I
FrameData[13] I
FrameData[14] I
FrameData[15] I
FrameData[16] I
FrameData[17] I
FrameData[18] I
FrameData[19] I
FrameData[1] I
FrameData[20] I
FrameData[21] I
FrameData[22] I
FrameData[23] I
FrameData[24] I
FrameData[25] I
FrameData[26] I
FrameData[27] I
FrameData[28] I
FrameData[29] I
FrameData[2] I
FrameData[30] I
FrameData[31] I
FrameData[3] I
FrameData[4] I
FrameData[5] I
FrameData[6] I
FrameData[7] I
FrameData[8] I
FrameData[9] I
FrameData_O[0] O
FrameData_O[10] O
FrameData_O[11] O
FrameData_O[12] O
FrameData_O[13] O
FrameData_O[14] O
FrameData_O[15] O
FrameData_O[16] O
FrameData_O[17] O
FrameData_O[18] O
FrameData_O[19] O
FrameData_O[1] O
FrameData_O[20] O
FrameData_O[21] O
FrameData_O[22] O
FrameData_O[23] O
FrameData_O[24] O
FrameData_O[25] O
FrameData_O[26] O
FrameData_O[27] O
FrameData_O[28] O
FrameData_O[29] O
FrameData_O[2] O
FrameData_O[30] O
FrameData_O[31] O
FrameData_O[3] O
FrameData_O[4] O
FrameData_O[5] O
FrameData_O[6] O
FrameData_O[7] O
FrameData_O[8] O
FrameData_O[9] O
FrameStrobe[0] I
FrameStrobe[10] I
FrameStrobe[11] I
FrameStrobe[12] I
FrameStrobe[13] I
FrameStrobe[14] I
FrameStrobe[15] I
FrameStrobe[16] I
FrameStrobe[17] I
FrameStrobe[18] I
FrameStrobe[19] I
FrameStrobe[1] I
FrameStrobe[2] I
FrameStrobe[3] I
FrameStrobe[4] I
FrameStrobe[5] I
FrameStrobe[6] I
FrameStrobe[7] I
FrameStrobe[8] I
FrameStrobe[9] I
FrameStrobe_O[0] O
FrameStrobe_O[10] O
FrameStrobe_O[11] O
FrameStrobe_O[12] O
FrameStrobe_O[13] O
FrameStrobe_O[14] O
FrameStrobe_O[15] O
FrameStrobe_O[16] O
FrameStrobe_O[17] O
FrameStrobe_O[18] O
FrameStrobe_O[19] O
FrameStrobe_O[1] O
FrameStrobe_O[2] O
FrameStrobe_O[3] O
FrameStrobe_O[4] O
FrameStrobe_O[5] O
FrameStrobe_O[6] O
FrameStrobe_O[7] O
FrameStrobe_O[8] O
FrameStrobe_O[9] O
N1BEG[0] O
N1BEG[1] O
N1BEG[2] O
N1BEG[3] O
N2BEG[0] O
N2BEG[1] O
N2BEG[2] O
N2BEG[3] O
N2BEG[4] O
N2BEG[5] O
N2BEG[6] O
N2BEG[7] O
N2BEGb[0] O
N2BEGb[1] O
N2BEGb[2] O
N2BEGb[3] O
N2BEGb[4] O
N2BEGb[5] O
N2BEGb[6] O
N2BEGb[7] O
N4BEG[0] O
N4BEG[10] O
N4BEG[11] O
N4BEG[12] O
N4BEG[13] O
N4BEG[14] O
N4BEG[15] O
N4BEG[1] O
N4BEG[2] O
N4BEG[3] O
N4BEG[4] O
N4BEG[5] O
N4BEG[6] O
N4BEG[7] O
N4BEG[8] O
N4BEG[9] O
NN4BEG[0] O
NN4BEG[10] O
NN4BEG[11] O
NN4BEG[12] O
NN4BEG[13] O
NN4BEG[14] O
NN4BEG[15] O
NN4BEG[1] O
NN4BEG[2] O
NN4BEG[3] O
NN4BEG[4] O
NN4BEG[5] O
NN4BEG[6] O
NN4BEG[7] O
NN4BEG[8] O
NN4BEG[9] O
RESET_top I
S1END[0] I
S1END[1] I
S1END[2] I
S1END[3] I
S2END[0] I
S2END[1] I
S2END[2] I
S2END[3] I
S2END[4] I
S2END[5] I
S2END[6] I
S2END[7] I
S2MID[0] I
S2MID[1] I
S2MID[2] I
S2MID[3] I
S2MID[4] I
S2MID[5] I
S2MID[6] I
S2MID[7] I
S4END[0] I
S4END[10] I
S4END[11] I
S4END[12] I
S4END[13] I
S4END[14] I
S4END[15] I
S4END[1] I
S4END[2] I
S4END[3] I
S4END[4] I
S4END[5] I
S4END[6] I
S4END[7] I
S4END[8] I
S4END[9] I
SLOT_top0 O
SLOT_top1 O
SLOT_top2 O
SLOT_top3 O
SS4END[0] I
SS4END[10] I
SS4END[11] I
SS4END[12] I
SS4END[13] I
SS4END[14] I
SS4END[15] I
SS4END[1] I
SS4END[2] I
SS4END[3] I
SS4END[4] I
SS4END[5] I
SS4END[6] I
SS4END[7] I
SS4END[8] I
SS4END[9] I
UserCLK I
UserCLKo O

*D_NET *1 0.00083247
*CONN
*P BOOT_top O
*I *1288:X O *D sg13g2_buf_1
*CAP
1 BOOT_top 0.000367622
2 *1288:X 0.000367622
3 BOOT_top *30:11 4.8613e-05
4 BOOT_top *34:13 4.8613e-05
*RES
1 *1288:X BOOT_top 44.5011 
*END

*D_NET *2 0.000922795
*CONN
*P CONFIGURED_top I
*I *1171:A I *D sg13g2_buf_1
*CAP
1 CONFIGURED_top 0.000461398
2 *1171:A 0.000461398
3 *1171:A *31:9 0
4 *1171:A *34:13 0
*RES
1 CONFIGURED_top *1171:A 45.2736 
*END

*D_NET *3 0.00229252
*CONN
*P Co O
*I *1018:L_LO O *D sg13g2_tielo
*CAP
1 Co 0.000926027
2 *1018:L_LO 0.000926027
3 Co NN4BEG[14] 0
4 Co NN4BEG[15] 0
5 Co *1185:A 0
6 Co *1268:A 0
7 Co *305:36 0.000365339
8 Co *311:14 7.51291e-05
*RES
1 *1018:L_LO Co 47.8692 
*END

*D_NET *4 0.0223345
*CONN
*P FrameData[0] I
*I *479:A I *D sg13g2_antennanp
*I *444:A I *D sg13g2_antennanp
*I *1063:A I *D sg13g2_buf_1
*I *438:A I *D sg13g2_antennanp
*I *473:A I *D sg13g2_antennanp
*CAP
1 FrameData[0] 0.00934151
2 *479:A 0.000284432
3 *444:A 0.000101536
4 *1063:A 0
5 *438:A 0
6 *473:A 0
7 *4:31 0.000264718
8 *4:25 0.000443906
9 *4:18 0.000141238
10 *4:11 6.35856e-05
11 *4:9 0.000562254
12 *4:5 0.00961933
13 *444:A *431:A 0
14 *444:A *1316:A 0
15 *444:A *263:14 0.000266105
16 *479:A *15:13 0.000368714
17 *479:A *26:11 0
18 *479:A *30:41 0
19 *4:5 *15:5 0
20 *4:5 *81:9 0
21 *4:5 *83:9 0
22 *4:5 *84:9 0
23 *4:5 *217:9 0
24 *4:9 *15:13 0.000307739
25 *4:9 *26:11 0
26 *4:9 *75:9 0
27 *4:18 *30:48 0
28 *4:18 *263:14 0.000181422
29 *4:25 *30:48 0
30 *4:25 *30:61 0
31 *4:25 *263:14 0.000212884
32 *4:31 *15:13 0
33 *4:31 *30:54 0
34 *4:31 *79:19 0.000175107
35 *4:31 *410:10 0
*RES
1 FrameData[0] *4:5 101.535 
2 *4:5 *4:9 22.9149 
3 *4:9 *4:11 20 
4 *4:11 *473:A 20 
5 *4:11 *4:18 0.8446 
6 *4:18 *438:A 20 
7 *4:18 *4:25 1.0918 
8 *4:25 *4:31 42.4823 
9 *4:31 *1063:A 20 
10 *4:25 *444:A 21.339 
11 *4:9 *479:A 42.8325 
*END

*D_NET *5 0.0362334
*CONN
*P FrameData[10] I
*I *1073:A I *D sg13g2_buf_1
*I *480:A I *D sg13g2_antennanp
*I *426:A I *D sg13g2_antennanp
*I *439:A I *D sg13g2_antennanp
*I *445:A I *D sg13g2_antennanp
*I *451:A I *D sg13g2_antennanp
*I *456:A I *D sg13g2_antennanp
*I *462:A I *D sg13g2_antennanp
*I *428:A I *D sg13g2_antennanp
*I *467:A I *D sg13g2_antennanp
*I *474:A I *D sg13g2_antennanp
*CAP
1 FrameData[10] 0.000891297
2 *1073:A 3.46569e-05
3 *480:A 0.000121091
4 *426:A 5.30503e-05
5 *439:A 0
6 *445:A 0
7 *451:A 0
8 *456:A 0
9 *462:A 0
10 *428:A 0.000430075
11 *467:A 0.00016623
12 *474:A 0
13 *5:107 0.000118029
14 *5:100 0.000127703
15 *5:93 0.000127669
16 *5:86 0.000179395
17 *5:79 0.000186535
18 *5:49 0.000505854
19 *5:45 0.00161843
20 *5:43 0.00164304
21 *5:37 0.00139865
22 *5:29 0.00100785
23 *5:21 0.00110152
24 *5:17 0.000824667
25 *5:9 0.00383671
26 *5:7 0.0046157
27 *426:A *7:17 0.0002655
28 *426:A *183:19 0.000287636
29 *428:A *186:25 0.000234604
30 *428:A *187:25 0
31 *428:A *207:7 0
32 *428:A *402:18 0
33 *467:A *73:15 0
34 *467:A *183:19 0
35 *480:A *187:25 0.000446773
36 *480:A *324:22 0.000446773
37 *1073:A *1113:A 0.000181462
38 *1073:A *186:25 0.000181462
39 *5:7 *6:5 0
40 *5:7 *34:11 0
41 *5:7 *35:9 0
42 *5:9 *1061:D 0
43 *5:9 *1150:A 0
44 *5:9 *32:7 0
45 *5:9 *32:9 0
46 *5:9 *221:10 0.00050056
47 *5:9 *239:8 0.000341085
48 *5:9 *288:10 0.00283739
49 *5:9 *289:8 0
50 *5:9 *338:14 0
51 *5:9 *342:16 0
52 *5:9 *362:22 0
53 *5:9 *388:10 4.8613e-05
54 *5:9 *393:31 0
55 *5:9 *393:35 0
56 *5:9 *393:43 0
57 *5:9 *393:49 0
58 *5:17 *1038:A3 0
59 *5:17 *1038:S1 0
60 *5:21 *1037:S1 0.000286443
61 *5:21 *1039:A1 0.000340669
62 *5:21 *362:16 0.00202596
63 *5:21 *362:22 0
64 *5:21 *393:98 0
65 *5:21 *404:18 0.00140588
66 *5:29 *33:13 0
67 *5:29 *85:13 4.66137e-05
68 *5:29 *316:14 0
69 *5:37 *313:20 0.0012985
70 *5:37 *332:12 0
71 *5:37 *350:26 0.00128723
72 *5:37 *375:18 0
73 *5:37 *375:26 0
74 *5:37 *397:14 0
75 *5:43 *6:37 0
76 *5:43 *375:18 0.000394267
77 *5:43 *376:14 0.000819132
78 *5:43 *404:58 0.00039389
79 *5:43 *416:6 0
80 *5:45 *207:7 0
81 *5:45 *231:27 0
82 *5:45 *358:22 0
83 *5:45 *367:28 0
84 *5:49 *73:15 0
85 *5:49 *183:19 0
86 *5:49 *322:10 0
87 *5:49 *404:83 0.000552987
88 *5:79 *183:19 0.000181194
89 *5:86 *7:17 0.000127783
90 *5:86 *183:19 0.000340291
91 *5:93 *7:17 0.000317674
92 *5:93 *183:19 0.000340019
93 *5:100 *7:17 0.000318343
94 *5:100 *183:19 0.000340479
95 *5:107 *7:17 0.000317047
96 *5:107 *183:19 0.000339014
*RES
1 FrameData[10] *5:7 10.0502 
2 *5:7 *5:9 42.6214 
3 *5:9 *5:17 41.133 
4 *5:17 *5:21 31.9686 
5 *5:21 *5:29 44.1303 
6 *5:29 *5:37 48.9507 
7 *5:37 *5:43 48.5078 
8 *5:43 *5:45 8.1061 
9 *5:45 *5:49 24.0582 
10 *5:49 *474:A 20 
11 *5:49 *467:A 20.8446 
12 *5:45 *428:A 43.1415 
13 *467:A *5:79 20.8446 
14 *5:79 *462:A 20 
15 *5:79 *5:86 1.5862 
16 *5:86 *456:A 20 
17 *5:86 *5:93 1.5862 
18 *5:93 *451:A 20 
19 *5:93 *5:100 1.5862 
20 *5:100 *445:A 20 
21 *5:100 *5:107 1.5862 
22 *5:107 *439:A 20 
23 *5:107 *426:A 21.339 