* NGSPICE file created from N_IO.ext - technology: sky130A

* Black-box entry subcircuit for sky130_fd_sc_hd__clkbuf_1 abstract view
.subckt sky130_fd_sc_hd__clkbuf_1 A VGND VNB VPB VPWR X
.ends

* Black-box entry subcircuit for sky130_fd_sc_hd__decap_3 abstract view
.subckt sky130_fd_sc_hd__decap_3 VGND VNB VPB VPWR
.ends

* Black-box entry subcircuit for sky130_fd_sc_hd__decap_4 abstract view
.subckt sky130_fd_sc_hd__decap_4 VGND VNB VPB VPWR
.ends

* Black-box entry subcircuit for sky130_fd_sc_hd__tapvpwrvgnd_1 abstract view
.subckt sky130_fd_sc_hd__tapvpwrvgnd_1 VGND VPWR
.ends

* Black-box entry subcircuit for sky130_fd_sc_hd__buf_1 abstract view
.subckt sky130_fd_sc_hd__buf_1 A VGND VNB VPB VPWR X
.ends

* Black-box entry subcircuit for sky130_fd_sc_hd__dlxtp_1 abstract view
.subckt sky130_fd_sc_hd__dlxtp_1 D GATE VGND VNB VPB VPWR Q
.ends

* Black-box entry subcircuit for sky130_fd_sc_hd__or2_1 abstract view
.subckt sky130_fd_sc_hd__or2_1 A B VGND VNB VPB VPWR X
.ends

* Black-box entry subcircuit for sky130_fd_sc_hd__o21ai_1 abstract view
.subckt sky130_fd_sc_hd__o21ai_1 A1 A2 B1 VGND VNB VPB VPWR Y
.ends

* Black-box entry subcircuit for sky130_fd_sc_hd__mux4_1 abstract view
.subckt sky130_fd_sc_hd__mux4_1 A0 A1 A2 A3 S0 S1 VGND VNB VPB VPWR X
.ends

* Black-box entry subcircuit for sky130_fd_sc_hd__diode_2 abstract view
.subckt sky130_fd_sc_hd__diode_2 DIODE VGND VNB VPB VPWR
.ends

* Black-box entry subcircuit for sky130_fd_sc_hd__buf_2 abstract view
.subckt sky130_fd_sc_hd__buf_2 A VGND VNB VPB VPWR X
.ends

* Black-box entry subcircuit for sky130_fd_sc_hd__fill_1 abstract view
.subckt sky130_fd_sc_hd__fill_1 VGND VNB VPB VPWR
.ends

* Black-box entry subcircuit for sky130_fd_sc_hd__clkbuf_2 abstract view
.subckt sky130_fd_sc_hd__clkbuf_2 A VGND VNB VPB VPWR X
.ends

* Black-box entry subcircuit for sky130_fd_sc_hd__or3b_1 abstract view
.subckt sky130_fd_sc_hd__or3b_1 A B C_N VGND VNB VPB VPWR X
.ends

* Black-box entry subcircuit for sky130_fd_sc_hd__fill_2 abstract view
.subckt sky130_fd_sc_hd__fill_2 VGND VNB VPB VPWR
.ends

* Black-box entry subcircuit for sky130_fd_sc_hd__inv_1 abstract view
.subckt sky130_fd_sc_hd__inv_1 A VGND VNB VPB VPWR Y
.ends

* Black-box entry subcircuit for sky130_fd_sc_hd__a211oi_1 abstract view
.subckt sky130_fd_sc_hd__a211oi_1 A1 A2 B1 C1 VGND VNB VPB VPWR Y
.ends

* Black-box entry subcircuit for sky130_fd_sc_hd__and3b_1 abstract view
.subckt sky130_fd_sc_hd__and3b_1 A_N B C VGND VNB VPB VPWR X
.ends

* Black-box entry subcircuit for sky130_ef_sc_hd__decap_12 abstract view
.subckt sky130_ef_sc_hd__decap_12 VPWR VGND VPB VNB
.ends

* Black-box entry subcircuit for sky130_fd_sc_hd__mux2_1 abstract view
.subckt sky130_fd_sc_hd__mux2_1 A0 A1 S VGND VNB VPB VPWR X
.ends

* Black-box entry subcircuit for sky130_fd_sc_hd__decap_6 abstract view
.subckt sky130_fd_sc_hd__decap_6 VGND VNB VPB VPWR
.ends

* Black-box entry subcircuit for sky130_fd_sc_hd__decap_8 abstract view
.subckt sky130_fd_sc_hd__decap_8 VGND VNB VPB VPWR
.ends

* Black-box entry subcircuit for sky130_fd_sc_hd__clkbuf_16 abstract view
.subckt sky130_fd_sc_hd__clkbuf_16 A VGND VNB VPB VPWR X
.ends

* Black-box entry subcircuit for sky130_fd_sc_hd__dlymetal6s2s_1 abstract view
.subckt sky130_fd_sc_hd__dlymetal6s2s_1 A VGND VNB VPB VPWR X
.ends

* Black-box entry subcircuit for sky130_fd_sc_hd__a22o_1 abstract view
.subckt sky130_fd_sc_hd__a22o_1 A1 A2 B1 B2 VGND VNB VPB VPWR X
.ends

* Black-box entry subcircuit for sky130_fd_sc_hd__inv_2 abstract view
.subckt sky130_fd_sc_hd__inv_2 A VGND VNB VPB VPWR Y
.ends

* Black-box entry subcircuit for sky130_fd_sc_hd__o21a_1 abstract view
.subckt sky130_fd_sc_hd__o21a_1 A1 A2 B1 VGND VNB VPB VPWR X
.ends

* Black-box entry subcircuit for sky130_fd_sc_hd__a41o_1 abstract view
.subckt sky130_fd_sc_hd__a41o_1 A1 A2 A3 A4 B1 VGND VNB VPB VPWR X
.ends

* Black-box entry subcircuit for sky130_fd_sc_hd__nand2_1 abstract view
.subckt sky130_fd_sc_hd__nand2_1 A B VGND VNB VPB VPWR Y
.ends

* Black-box entry subcircuit for sky130_fd_sc_hd__dfxtp_1 abstract view
.subckt sky130_fd_sc_hd__dfxtp_1 CLK D VGND VNB VPB VPWR Q
.ends

.subckt N_IO A_I_top A_O_top A_T_top A_config_C_bit0 A_config_C_bit1 A_config_C_bit2
+ A_config_C_bit3 B_I_top B_O_top B_T_top B_config_C_bit0 B_config_C_bit1 B_config_C_bit2
+ B_config_C_bit3 Ci FrameData[0] FrameData[10] FrameData[11] FrameData[12] FrameData[13]
+ FrameData[14] FrameData[15] FrameData[16] FrameData[17] FrameData[18] FrameData[19]
+ FrameData[1] FrameData[20] FrameData[21] FrameData[22] FrameData[23] FrameData[24]
+ FrameData[25] FrameData[26] FrameData[27] FrameData[28] FrameData[29] FrameData[2]
+ FrameData[30] FrameData[31] FrameData[3] FrameData[4] FrameData[5] FrameData[6]
+ FrameData[7] FrameData[8] FrameData[9] FrameData_O[0] FrameData_O[10] FrameData_O[11]
+ FrameData_O[12] FrameData_O[13] FrameData_O[14] FrameData_O[15] FrameData_O[16]
+ FrameData_O[17] FrameData_O[18] FrameData_O[19] FrameData_O[1] FrameData_O[20] FrameData_O[21]
+ FrameData_O[22] FrameData_O[23] FrameData_O[24] FrameData_O[25] FrameData_O[26]
+ FrameData_O[27] FrameData_O[28] FrameData_O[29] FrameData_O[2] FrameData_O[30] FrameData_O[31]
+ FrameData_O[3] FrameData_O[4] FrameData_O[5] FrameData_O[6] FrameData_O[7] FrameData_O[8]
+ FrameData_O[9] FrameStrobe[0] FrameStrobe[10] FrameStrobe[11] FrameStrobe[12] FrameStrobe[13]
+ FrameStrobe[14] FrameStrobe[15] FrameStrobe[16] FrameStrobe[17] FrameStrobe[18]
+ FrameStrobe[19] FrameStrobe[1] FrameStrobe[2] FrameStrobe[3] FrameStrobe[4] FrameStrobe[5]
+ FrameStrobe[6] FrameStrobe[7] FrameStrobe[8] FrameStrobe[9] FrameStrobe_O[0] FrameStrobe_O[10]
+ FrameStrobe_O[11] FrameStrobe_O[12] FrameStrobe_O[13] FrameStrobe_O[14] FrameStrobe_O[15]
+ FrameStrobe_O[16] FrameStrobe_O[17] FrameStrobe_O[18] FrameStrobe_O[19] FrameStrobe_O[1]
+ FrameStrobe_O[2] FrameStrobe_O[3] FrameStrobe_O[4] FrameStrobe_O[5] FrameStrobe_O[6]
+ FrameStrobe_O[7] FrameStrobe_O[8] FrameStrobe_O[9] N1END[0] N1END[1] N1END[2] N1END[3]
+ N2END[0] N2END[1] N2END[2] N2END[3] N2END[4] N2END[5] N2END[6] N2END[7] N2MID[0]
+ N2MID[1] N2MID[2] N2MID[3] N2MID[4] N2MID[5] N2MID[6] N2MID[7] N4END[0] N4END[10]
+ N4END[11] N4END[12] N4END[13] N4END[14] N4END[15] N4END[1] N4END[2] N4END[3] N4END[4]
+ N4END[5] N4END[6] N4END[7] N4END[8] N4END[9] NN4END[0] NN4END[10] NN4END[11] NN4END[12]
+ NN4END[13] NN4END[14] NN4END[15] NN4END[1] NN4END[2] NN4END[3] NN4END[4] NN4END[5]
+ NN4END[6] NN4END[7] NN4END[8] NN4END[9] S1BEG[0] S1BEG[1] S1BEG[2] S1BEG[3] S2BEG[0]
+ S2BEG[1] S2BEG[2] S2BEG[3] S2BEG[4] S2BEG[5] S2BEG[6] S2BEG[7] S2BEGb[0] S2BEGb[1]
+ S2BEGb[2] S2BEGb[3] S2BEGb[4] S2BEGb[5] S2BEGb[6] S2BEGb[7] S4BEG[0] S4BEG[10] S4BEG[11]
+ S4BEG[12] S4BEG[13] S4BEG[14] S4BEG[15] S4BEG[1] S4BEG[2] S4BEG[3] S4BEG[4] S4BEG[5]
+ S4BEG[6] S4BEG[7] S4BEG[8] S4BEG[9] SS4BEG[0] SS4BEG[10] SS4BEG[11] SS4BEG[12] SS4BEG[13]
+ SS4BEG[14] SS4BEG[15] SS4BEG[1] SS4BEG[2] SS4BEG[3] SS4BEG[4] SS4BEG[5] SS4BEG[6]
+ SS4BEG[7] SS4BEG[8] SS4BEG[9] UserCLK UserCLKo VGND VPWR
X_294_ FrameStrobe[18] VGND VGND VPWR VPWR net157 sky130_fd_sc_hd__clkbuf_1
XFILLER_5_321 VGND VGND VPWR VPWR sky130_fd_sc_hd__decap_3
XFILLER_10_147 VGND VGND VPWR VPWR sky130_fd_sc_hd__decap_4
XTAP_TAPCELL_ROW_8_88 VGND VPWR sky130_fd_sc_hd__tapvpwrvgnd_1
XPHY_EDGE_ROW_0_Left_12 VGND VGND VPWR VPWR sky130_fd_sc_hd__decap_3
X_346_ Inst_N_IO_switch_matrix.SS4BEG14 VGND VGND VPWR VPWR net209 sky130_fd_sc_hd__buf_1
XTAP_TAPCELL_ROW_11_120 VGND VPWR sky130_fd_sc_hd__tapvpwrvgnd_1
X_277_ net63 VGND VGND VPWR VPWR net159 sky130_fd_sc_hd__clkbuf_1
X_131_ net11 net54 VGND VGND VPWR VPWR Inst_N_IO_ConfigMem.Inst_frame3_bit17.Q sky130_fd_sc_hd__dlxtp_1
X_200_ net17 net62 VGND VGND VPWR VPWR Inst_N_IO_ConfigMem.Inst_frame1_bit22.Q sky130_fd_sc_hd__dlxtp_1
X_062_ Inst_N_IO_ConfigMem.Inst_frame0_bit27.Q _006_ VGND VGND VPWR VPWR _007_ sky130_fd_sc_hd__or2_1
X_329_ Inst_N_IO_switch_matrix.S4BEG13 VGND VGND VPWR VPWR net192 sky130_fd_sc_hd__clkbuf_1
XFILLER_11_275 VGND VGND VPWR VPWR sky130_fd_sc_hd__decap_4
X_045_ net43 Inst_N_IO_ConfigMem.Inst_frame0_bit23.Q Inst_N_IO_ConfigMem.Inst_frame0_bit24.Q
+ VGND VGND VPWR VPWR _024_ sky130_fd_sc_hd__o21ai_1
X_114_ net44 net83 net99 net92 Inst_N_IO_ConfigMem.Inst_frame2_bit6.Q Inst_N_IO_ConfigMem.Inst_frame2_bit7.Q
+ VGND VGND VPWR VPWR Inst_N_IO_switch_matrix.S2BEGb2 sky130_fd_sc_hd__mux4_1
XTAP_TAPCELL_ROW_5_67 VGND VPWR sky130_fd_sc_hd__tapvpwrvgnd_1
XANTENNA_5 net143 VGND VGND VPWR VPWR sky130_fd_sc_hd__diode_2
Xoutput97 net114 VGND VGND VPWR VPWR B_config_C_bit2 sky130_fd_sc_hd__buf_2
XFILLER_8_363 VGND VGND VPWR VPWR sky130_fd_sc_hd__fill_1
XFILLER_8_330 VGND VGND VPWR VPWR sky130_fd_sc_hd__decap_4
XTAP_TAPCELL_ROW_2_46 VGND VPWR sky130_fd_sc_hd__tapvpwrvgnd_1
X_293_ FrameStrobe[17] VGND VGND VPWR VPWR net156 sky130_fd_sc_hd__clkbuf_1
XFILLER_2_369 VGND VGND VPWR VPWR sky130_fd_sc_hd__fill_1
XTAP_TAPCELL_ROW_11_121 VGND VPWR sky130_fd_sc_hd__tapvpwrvgnd_1
XTAP_TAPCELL_ROW_11_110 VGND VPWR sky130_fd_sc_hd__tapvpwrvgnd_1
XTAP_TAPCELL_ROW_8_89 VGND VPWR sky130_fd_sc_hd__tapvpwrvgnd_1
X_276_ net68 VGND VGND VPWR VPWR net148 sky130_fd_sc_hd__clkbuf_1
X_345_ Inst_N_IO_switch_matrix.SS4BEG13 VGND VGND VPWR VPWR net208 sky130_fd_sc_hd__clkbuf_1
X_130_ net10 net54 VGND VGND VPWR VPWR Inst_N_IO_ConfigMem.Inst_frame3_bit16.Q sky130_fd_sc_hd__dlxtp_1
X_259_ net9 VGND VGND VPWR VPWR net122 sky130_fd_sc_hd__clkbuf_2
X_061_ net39 net40 net41 net42 Inst_N_IO_ConfigMem.Inst_frame0_bit25.Q Inst_N_IO_ConfigMem.Inst_frame0_bit26.Q
+ VGND VGND VPWR VPWR _006_ sky130_fd_sc_hd__mux4_1
X_328_ Inst_N_IO_switch_matrix.S4BEG12 VGND VGND VPWR VPWR net191 sky130_fd_sc_hd__clkbuf_1
XFILLER_4_409 VGND VGND VPWR VPWR sky130_fd_sc_hd__fill_1
X_113_ net43 net82 net98 net91 Inst_N_IO_ConfigMem.Inst_frame2_bit8.Q Inst_N_IO_ConfigMem.Inst_frame2_bit9.Q
+ VGND VGND VPWR VPWR Inst_N_IO_switch_matrix.S2BEGb3 sky130_fd_sc_hd__mux4_1
XFILLER_7_225 VGND VGND VPWR VPWR sky130_fd_sc_hd__fill_1
XTAP_TAPCELL_ROW_5_68 VGND VPWR sky130_fd_sc_hd__tapvpwrvgnd_1
X_044_ Inst_N_IO_ConfigMem.Inst_frame0_bit23.Q Inst_N_IO_ConfigMem.Inst_frame0_bit24.Q
+ net39 VGND VGND VPWR VPWR _023_ sky130_fd_sc_hd__or3b_1
XANTENNA_6 FrameStrobe[0] VGND VGND VPWR VPWR sky130_fd_sc_hd__diode_2
XPHY_EDGE_ROW_6_Right_6 VGND VGND VPWR VPWR sky130_fd_sc_hd__decap_3
Xoutput98 net115 VGND VGND VPWR VPWR B_config_C_bit3 sky130_fd_sc_hd__buf_2
Xoutput87 net104 VGND VGND VPWR VPWR A_I_top sky130_fd_sc_hd__buf_2
XTAP_TAPCELL_ROW_2_47 VGND VPWR sky130_fd_sc_hd__tapvpwrvgnd_1
X_292_ FrameStrobe[16] VGND VGND VPWR VPWR net155 sky130_fd_sc_hd__clkbuf_1
XFILLER_5_334 VGND VGND VPWR VPWR sky130_fd_sc_hd__fill_2
XFILLER_3_47 VGND VGND VPWR VPWR sky130_fd_sc_hd__fill_2
XFILLER_10_138 VGND VGND VPWR VPWR sky130_fd_sc_hd__fill_2
XTAP_TAPCELL_ROW_11_111 VGND VPWR sky130_fd_sc_hd__tapvpwrvgnd_1
XFILLER_5_164 VGND VGND VPWR VPWR sky130_fd_sc_hd__fill_1
X_275_ net27 VGND VGND VPWR VPWR net140 sky130_fd_sc_hd__clkbuf_2
X_344_ Inst_N_IO_switch_matrix.SS4BEG12 VGND VGND VPWR VPWR net207 sky130_fd_sc_hd__clkbuf_1
Xoutput200 net217 VGND VGND VPWR VPWR SS4BEG[7] sky130_fd_sc_hd__buf_2
X_060_ Inst_N_IO_ConfigMem.Inst_frame0_bit31.Q VGND VGND VPWR VPWR _005_ sky130_fd_sc_hd__inv_1
X_327_ Inst_N_IO_switch_matrix.S4BEG11 VGND VGND VPWR VPWR net190 sky130_fd_sc_hd__clkbuf_1
XFILLER_9_57 VGND VGND VPWR VPWR sky130_fd_sc_hd__fill_1
X_189_ net5 net60 VGND VGND VPWR VPWR Inst_N_IO_ConfigMem.Inst_frame1_bit11.Q sky130_fd_sc_hd__dlxtp_1
X_258_ net8 VGND VGND VPWR VPWR net121 sky130_fd_sc_hd__buf_1
XTAP_TAPCELL_ROW_5_69 VGND VPWR sky130_fd_sc_hd__tapvpwrvgnd_1
X_043_ _004_ _020_ _021_ Inst_N_IO_ConfigMem.Inst_frame0_bit22.Q VGND VGND VPWR VPWR
+ _022_ sky130_fd_sc_hd__a211oi_1
X_112_ net42 net81 net97 net90 Inst_N_IO_ConfigMem.Inst_frame2_bit10.Q Inst_N_IO_ConfigMem.Inst_frame2_bit11.Q
+ VGND VGND VPWR VPWR Inst_N_IO_switch_matrix.S2BEGb4 sky130_fd_sc_hd__mux4_1
XFILLER_4_218 VGND VGND VPWR VPWR sky130_fd_sc_hd__fill_1
XANTENNA_7 FrameStrobe[1] VGND VGND VPWR VPWR sky130_fd_sc_hd__diode_2
Xoutput88 net105 VGND VGND VPWR VPWR A_T_top sky130_fd_sc_hd__buf_2
Xoutput99 net116 VGND VGND VPWR VPWR FrameData_O[0] sky130_fd_sc_hd__buf_2
XTAP_TAPCELL_ROW_2_48 VGND VPWR sky130_fd_sc_hd__tapvpwrvgnd_1
X_291_ FrameStrobe[15] VGND VGND VPWR VPWR net154 sky130_fd_sc_hd__clkbuf_1
XFILLER_8_195 VGND VGND VPWR VPWR sky130_fd_sc_hd__fill_1
XTAP_TAPCELL_ROW_11_112 VGND VPWR sky130_fd_sc_hd__tapvpwrvgnd_1
X_343_ Inst_N_IO_switch_matrix.SS4BEG11 VGND VGND VPWR VPWR net206 sky130_fd_sc_hd__clkbuf_1
X_274_ net26 VGND VGND VPWR VPWR net139 sky130_fd_sc_hd__clkbuf_2
XFILLER_5_110 VGND VGND VPWR VPWR sky130_fd_sc_hd__fill_2
XFILLER_1_393 VGND VGND VPWR VPWR sky130_fd_sc_hd__decap_4
Xoutput201 net218 VGND VGND VPWR VPWR SS4BEG[8] sky130_fd_sc_hd__buf_2
XPHY_EDGE_ROW_4_Left_16 VGND VGND VPWR VPWR sky130_fd_sc_hd__decap_3
XFILLER_9_47 VGND VGND VPWR VPWR sky130_fd_sc_hd__fill_1
X_257_ net7 VGND VGND VPWR VPWR net120 sky130_fd_sc_hd__buf_1
X_326_ Inst_N_IO_switch_matrix.S4BEG10 VGND VGND VPWR VPWR net189 sky130_fd_sc_hd__clkbuf_1
X_188_ net4 net60 VGND VGND VPWR VPWR Inst_N_IO_ConfigMem.Inst_frame1_bit10.Q sky130_fd_sc_hd__dlxtp_1
X_309_ Inst_N_IO_switch_matrix.S2BEGb1 VGND VGND VPWR VPWR net181 sky130_fd_sc_hd__buf_1
X_111_ net41 net80 net96 net89 Inst_N_IO_ConfigMem.Inst_frame2_bit12.Q Inst_N_IO_ConfigMem.Inst_frame2_bit13.Q
+ VGND VGND VPWR VPWR Inst_N_IO_switch_matrix.S2BEGb5 sky130_fd_sc_hd__mux4_1
X_042_ Inst_N_IO_ConfigMem.Inst_frame0_bit23.Q Inst_N_IO_ConfigMem.Inst_frame0_bit24.Q
+ net42 VGND VGND VPWR VPWR _021_ sky130_fd_sc_hd__and3b_1
XFILLER_6_15 VGND VGND VPWR VPWR sky130_fd_sc_hd__fill_1
XANTENNA_8 FrameStrobe[3] VGND VGND VPWR VPWR sky130_fd_sc_hd__diode_2
Xoutput89 net106 VGND VGND VPWR VPWR A_config_C_bit0 sky130_fd_sc_hd__buf_2
XTAP_TAPCELL_ROW_2_49 VGND VPWR sky130_fd_sc_hd__tapvpwrvgnd_1
XFILLER_5_314 VGND VGND VPWR VPWR sky130_fd_sc_hd__decap_3
X_290_ FrameStrobe[14] VGND VGND VPWR VPWR net153 sky130_fd_sc_hd__clkbuf_1
XFILLER_4_391 VPWR VGND VPWR VGND sky130_ef_sc_hd__decap_12
XTAP_TAPCELL_ROW_11_113 VGND VPWR sky130_fd_sc_hd__tapvpwrvgnd_1
X_342_ Inst_N_IO_switch_matrix.SS4BEG10 VGND VGND VPWR VPWR net205 sky130_fd_sc_hd__clkbuf_1
X_273_ net24 VGND VGND VPWR VPWR net137 sky130_fd_sc_hd__clkbuf_2
Xoutput202 net219 VGND VGND VPWR VPWR SS4BEG[9] sky130_fd_sc_hd__buf_2
X_187_ net34 net61 VGND VGND VPWR VPWR Inst_N_IO_ConfigMem.Inst_frame1_bit9.Q sky130_fd_sc_hd__dlxtp_1
X_256_ net6 VGND VGND VPWR VPWR net119 sky130_fd_sc_hd__clkbuf_1
X_325_ Inst_N_IO_switch_matrix.S4BEG9 VGND VGND VPWR VPWR net203 sky130_fd_sc_hd__clkbuf_1
XFILLER_11_279 VGND VGND VPWR VPWR sky130_fd_sc_hd__fill_1
X_041_ net71 net40 Inst_N_IO_ConfigMem.Inst_frame0_bit23.Q VGND VGND VPWR VPWR _020_
+ sky130_fd_sc_hd__mux2_1
X_110_ net40 net79 net95 net103 Inst_N_IO_ConfigMem.Inst_frame2_bit14.Q Inst_N_IO_ConfigMem.Inst_frame2_bit15.Q
+ VGND VGND VPWR VPWR Inst_N_IO_switch_matrix.S2BEGb6 sky130_fd_sc_hd__mux4_1
X_308_ Inst_N_IO_switch_matrix.S2BEGb0 VGND VGND VPWR VPWR net180 sky130_fd_sc_hd__clkbuf_1
X_239_ net24 net66 VGND VGND VPWR VPWR Inst_N_IO_ConfigMem.Inst_frame0_bit29.Q sky130_fd_sc_hd__dlxtp_1
XFILLER_4_209 VGND VGND VPWR VPWR sky130_fd_sc_hd__fill_1
XFILLER_6_27 VGND VGND VPWR VPWR sky130_fd_sc_hd__fill_1
XANTENNA_9 net215 VGND VGND VPWR VPWR sky130_fd_sc_hd__diode_2
XFILLER_8_334 VGND VGND VPWR VPWR sky130_fd_sc_hd__fill_1
XFILLER_0_278 VGND VGND VPWR VPWR sky130_fd_sc_hd__fill_2
X_341_ Inst_N_IO_switch_matrix.SS4BEG9 VGND VGND VPWR VPWR net219 sky130_fd_sc_hd__clkbuf_1
X_272_ net23 VGND VGND VPWR VPWR net136 sky130_fd_sc_hd__buf_1
XTAP_TAPCELL_ROW_11_114 VGND VPWR sky130_fd_sc_hd__tapvpwrvgnd_1
Xoutput203 net220 VGND VGND VPWR VPWR UserCLKo sky130_fd_sc_hd__buf_1
X_186_ net33 net61 VGND VGND VPWR VPWR Inst_N_IO_ConfigMem.Inst_frame1_bit8.Q sky130_fd_sc_hd__dlxtp_1
X_324_ Inst_N_IO_switch_matrix.S4BEG8 VGND VGND VPWR VPWR net202 sky130_fd_sc_hd__clkbuf_1
XFILLER_0_29 VGND VGND VPWR VPWR sky130_fd_sc_hd__fill_1
X_255_ net5 VGND VGND VPWR VPWR net118 sky130_fd_sc_hd__clkbuf_1
XFILLER_9_281 VGND VGND VPWR VPWR sky130_fd_sc_hd__fill_2
XFILLER_11_269 VGND VGND VPWR VPWR sky130_fd_sc_hd__fill_2
XFILLER_11_203 VGND VGND VPWR VPWR sky130_fd_sc_hd__decap_4
XFILLER_7_218 VGND VGND VPWR VPWR sky130_fd_sc_hd__decap_6
X_040_ net38 net1 Inst_N_IO_ConfigMem.Inst_frame3_bit14.Q VGND VGND VPWR VPWR Inst_N_IO_switch_matrix.S1BEG0
+ sky130_fd_sc_hd__mux2_1
X_307_ Inst_N_IO_switch_matrix.S2BEG7 VGND VGND VPWR VPWR net179 sky130_fd_sc_hd__buf_1
X_169_ net18 net56 VGND VGND VPWR VPWR Inst_N_IO_ConfigMem.Inst_frame2_bit23.Q sky130_fd_sc_hd__dlxtp_1
X_238_ net23 net64 VGND VGND VPWR VPWR Inst_N_IO_ConfigMem.Inst_frame0_bit28.Q sky130_fd_sc_hd__dlxtp_1
XFILLER_8_187 VGND VGND VPWR VPWR sky130_fd_sc_hd__decap_8
XTAP_TAPCELL_ROW_11_115 VGND VPWR sky130_fd_sc_hd__tapvpwrvgnd_1
X_340_ Inst_N_IO_switch_matrix.SS4BEG8 VGND VGND VPWR VPWR net218 sky130_fd_sc_hd__clkbuf_1
X_271_ net22 VGND VGND VPWR VPWR net135 sky130_fd_sc_hd__clkbuf_2
X_323_ Inst_N_IO_switch_matrix.S4BEG7 VGND VGND VPWR VPWR net201 sky130_fd_sc_hd__buf_1
Xfanout60 net62 VGND VGND VPWR VPWR net60 sky130_fd_sc_hd__buf_2
XFILLER_6_400 VGND VGND VPWR VPWR sky130_fd_sc_hd__decap_4
X_185_ net32 net60 VGND VGND VPWR VPWR Inst_N_IO_ConfigMem.Inst_frame1_bit7.Q sky130_fd_sc_hd__dlxtp_1
X_254_ net4 VGND VGND VPWR VPWR net117 sky130_fd_sc_hd__clkbuf_1
X_099_ net35 net75 net91 Inst_B_IO_1_bidirectional_frame_config_pass.Q Inst_N_IO_ConfigMem.Inst_frame1_bit4.Q
+ Inst_N_IO_ConfigMem.Inst_frame1_bit5.Q VGND VGND VPWR VPWR Inst_N_IO_switch_matrix.S4BEG9
+ sky130_fd_sc_hd__mux4_1
XFILLER_6_230 VGND VGND VPWR VPWR sky130_fd_sc_hd__fill_1
X_168_ net17 net56 VGND VGND VPWR VPWR Inst_N_IO_ConfigMem.Inst_frame2_bit22.Q sky130_fd_sc_hd__dlxtp_1
X_306_ Inst_N_IO_switch_matrix.S2BEG6 VGND VGND VPWR VPWR net178 sky130_fd_sc_hd__clkbuf_1
X_237_ net22 net64 VGND VGND VPWR VPWR Inst_N_IO_ConfigMem.Inst_frame0_bit27.Q sky130_fd_sc_hd__dlxtp_1
XPHY_EDGE_ROW_1_Right_1 VGND VGND VPWR VPWR sky130_fd_sc_hd__decap_3
XFILLER_7_391 VGND VGND VPWR VPWR sky130_fd_sc_hd__fill_1
XTAP_TAPCELL_ROW_11_116 VGND VPWR sky130_fd_sc_hd__tapvpwrvgnd_1
XFILLER_5_169 VGND VGND VPWR VPWR sky130_fd_sc_hd__fill_1
XFILLER_1_386 VGND VGND VPWR VPWR sky130_fd_sc_hd__decap_6
XFILLER_1_397 VGND VGND VPWR VPWR sky130_fd_sc_hd__fill_1
X_270_ net21 VGND VGND VPWR VPWR net134 sky130_fd_sc_hd__buf_1
XFILLER_4_62 VGND VGND VPWR VPWR sky130_fd_sc_hd__fill_1
X_322_ Inst_N_IO_switch_matrix.S4BEG6 VGND VGND VPWR VPWR net200 sky130_fd_sc_hd__clkbuf_1
Xfanout61 net62 VGND VGND VPWR VPWR net61 sky130_fd_sc_hd__clkbuf_2
X_253_ net34 VGND VGND VPWR VPWR net147 sky130_fd_sc_hd__clkbuf_2
XTAP_TAPCELL_ROW_9_94 VGND VPWR sky130_fd_sc_hd__tapvpwrvgnd_1
XTAP_TAPCELL_ROW_0_30 VGND VPWR sky130_fd_sc_hd__tapvpwrvgnd_1
X_184_ net31 net60 VGND VGND VPWR VPWR Inst_N_IO_ConfigMem.Inst_frame1_bit6.Q sky130_fd_sc_hd__dlxtp_1
XFILLER_10_282 VGND VGND VPWR VPWR sky130_fd_sc_hd__fill_1
X_167_ net16 net58 VGND VGND VPWR VPWR Inst_N_IO_ConfigMem.Inst_frame2_bit21.Q sky130_fd_sc_hd__dlxtp_1
X_305_ Inst_N_IO_switch_matrix.S2BEG5 VGND VGND VPWR VPWR net177 sky130_fd_sc_hd__clkbuf_1
X_236_ net21 net65 VGND VGND VPWR VPWR Inst_N_IO_ConfigMem.Inst_frame0_bit26.Q sky130_fd_sc_hd__dlxtp_1
X_098_ net87 net92 net103 Inst_A_IO_1_bidirectional_frame_config_pass.Q Inst_N_IO_ConfigMem.Inst_frame1_bit7.Q
+ Inst_N_IO_ConfigMem.Inst_frame1_bit6.Q VGND VGND VPWR VPWR Inst_N_IO_switch_matrix.S4BEG10
+ sky130_fd_sc_hd__mux4_1
X_219_ net34 net67 VGND VGND VPWR VPWR Inst_N_IO_ConfigMem.Inst_frame0_bit9.Q sky130_fd_sc_hd__dlxtp_1
XPHY_EDGE_ROW_11_Left_23 VGND VGND VPWR VPWR sky130_fd_sc_hd__decap_3
XTAP_TAPCELL_ROW_6_73 VGND VPWR sky130_fd_sc_hd__tapvpwrvgnd_1
XTAP_TAPCELL_ROW_3_52 VGND VPWR sky130_fd_sc_hd__tapvpwrvgnd_1
XFILLER_4_362 VGND VGND VPWR VPWR sky130_fd_sc_hd__fill_2
XTAP_TAPCELL_ROW_11_117 VGND VPWR sky130_fd_sc_hd__tapvpwrvgnd_1
XFILLER_9_410 VGND VGND VPWR VPWR sky130_fd_sc_hd__fill_2
X_321_ Inst_N_IO_switch_matrix.S4BEG5 VGND VGND VPWR VPWR net199 sky130_fd_sc_hd__buf_1
X_252_ net33 VGND VGND VPWR VPWR net146 sky130_fd_sc_hd__clkbuf_2
XTAP_TAPCELL_ROW_9_95 VGND VPWR sky130_fd_sc_hd__tapvpwrvgnd_1
X_183_ net30 net62 VGND VGND VPWR VPWR Inst_N_IO_ConfigMem.Inst_frame1_bit5.Q sky130_fd_sc_hd__dlxtp_1
XTAP_TAPCELL_ROW_0_31 VGND VPWR sky130_fd_sc_hd__tapvpwrvgnd_1
Xfanout62 net63 VGND VGND VPWR VPWR net62 sky130_fd_sc_hd__clkbuf_2
X_304_ Inst_N_IO_switch_matrix.S2BEG4 VGND VGND VPWR VPWR net176 sky130_fd_sc_hd__clkbuf_1
XFILLER_3_405 VGND VGND VPWR VPWR sky130_fd_sc_hd__decap_4
X_235_ net20 net64 VGND VGND VPWR VPWR Inst_N_IO_ConfigMem.Inst_frame0_bit25.Q sky130_fd_sc_hd__dlxtp_1
X_166_ net15 net58 VGND VGND VPWR VPWR Inst_N_IO_ConfigMem.Inst_frame2_bit20.Q sky130_fd_sc_hd__dlxtp_1
X_097_ net86 net91 net102 Inst_B_IO_1_bidirectional_frame_config_pass.Q Inst_N_IO_ConfigMem.Inst_frame1_bit9.Q
+ Inst_N_IO_ConfigMem.Inst_frame1_bit8.Q VGND VGND VPWR VPWR Inst_N_IO_switch_matrix.S4BEG11
+ sky130_fd_sc_hd__mux4_1
X_218_ net33 net67 VGND VGND VPWR VPWR Inst_N_IO_ConfigMem.Inst_frame0_bit8.Q sky130_fd_sc_hd__dlxtp_1
XTAP_TAPCELL_ROW_6_74 VGND VPWR sky130_fd_sc_hd__tapvpwrvgnd_1
X_149_ net28 net59 VGND VGND VPWR VPWR Inst_N_IO_ConfigMem.Inst_frame2_bit3.Q sky130_fd_sc_hd__dlxtp_1
XFILLER_7_393 VGND VGND VPWR VPWR sky130_fd_sc_hd__decap_8
XFILLER_8_168 VGND VGND VPWR VPWR sky130_fd_sc_hd__decap_3
XTAP_TAPCELL_ROW_3_53 VGND VPWR sky130_fd_sc_hd__tapvpwrvgnd_1
XFILLER_4_385 VGND VGND VPWR VPWR sky130_fd_sc_hd__decap_3
XTAP_TAPCELL_ROW_11_118 VGND VPWR sky130_fd_sc_hd__tapvpwrvgnd_1
XFILLER_9_400 VGND VGND VPWR VPWR sky130_fd_sc_hd__fill_2
XFILLER_4_97 VGND VGND VPWR VPWR sky130_fd_sc_hd__fill_1
X_251_ net32 VGND VGND VPWR VPWR net145 sky130_fd_sc_hd__buf_1
X_182_ net29 net62 VGND VGND VPWR VPWR Inst_N_IO_ConfigMem.Inst_frame1_bit4.Q sky130_fd_sc_hd__dlxtp_1
X_320_ Inst_N_IO_switch_matrix.S4BEG4 VGND VGND VPWR VPWR net198 sky130_fd_sc_hd__clkbuf_1
XTAP_TAPCELL_ROW_0_32 VGND VPWR sky130_fd_sc_hd__tapvpwrvgnd_1
Xfanout63 FrameStrobe[1] VGND VGND VPWR VPWR net63 sky130_fd_sc_hd__clkbuf_2
Xfanout52 net54 VGND VGND VPWR VPWR net52 sky130_fd_sc_hd__buf_2
XTAP_TAPCELL_ROW_9_96 VGND VPWR sky130_fd_sc_hd__tapvpwrvgnd_1
XFILLER_11_207 VGND VGND VPWR VPWR sky130_fd_sc_hd__fill_1
X_234_ net19 net64 VGND VGND VPWR VPWR Inst_N_IO_ConfigMem.Inst_frame0_bit24.Q sky130_fd_sc_hd__dlxtp_1
X_165_ net13 net56 VGND VGND VPWR VPWR Inst_N_IO_ConfigMem.Inst_frame2_bit19.Q sky130_fd_sc_hd__dlxtp_1
X_303_ Inst_N_IO_switch_matrix.S2BEG3 VGND VGND VPWR VPWR net175 sky130_fd_sc_hd__buf_1
X_096_ net36 net99 net83 Inst_A_IO_1_bidirectional_frame_config_pass.Q Inst_N_IO_ConfigMem.Inst_frame1_bit11.Q
+ Inst_N_IO_ConfigMem.Inst_frame1_bit10.Q VGND VGND VPWR VPWR Inst_N_IO_switch_matrix.S4BEG12
+ sky130_fd_sc_hd__mux4_1
XFILLER_10_41 VGND VGND VPWR VPWR sky130_fd_sc_hd__fill_1
X_217_ net32 net67 VGND VGND VPWR VPWR Inst_N_IO_ConfigMem.Inst_frame0_bit7.Q sky130_fd_sc_hd__dlxtp_1
XTAP_TAPCELL_ROW_6_75 VGND VPWR sky130_fd_sc_hd__tapvpwrvgnd_1
X_148_ net25 net59 VGND VGND VPWR VPWR Inst_N_IO_ConfigMem.Inst_frame2_bit2.Q sky130_fd_sc_hd__dlxtp_1
X_079_ net85 net87 net74 Inst_B_IO_1_bidirectional_frame_config_pass.Q Inst_N_IO_ConfigMem.Inst_frame0_bit12.Q
+ Inst_N_IO_ConfigMem.Inst_frame0_bit13.Q VGND VGND VPWR VPWR Inst_N_IO_switch_matrix.SS4BEG13
+ sky130_fd_sc_hd__mux4_1
XFILLER_8_306 VGND VGND VPWR VPWR sky130_fd_sc_hd__fill_2
XFILLER_7_383 VGND VGND VPWR VPWR sky130_fd_sc_hd__decap_8
XPHY_EDGE_ROW_5_Right_5 VGND VGND VPWR VPWR sky130_fd_sc_hd__decap_3
XTAP_TAPCELL_ROW_3_54 VGND VPWR sky130_fd_sc_hd__tapvpwrvgnd_1
XTAP_TAPCELL_ROW_11_119 VGND VPWR sky130_fd_sc_hd__tapvpwrvgnd_1
XTAP_TAPCELL_ROW_11_108 VGND VPWR sky130_fd_sc_hd__tapvpwrvgnd_1
X_250_ net31 VGND VGND VPWR VPWR net144 sky130_fd_sc_hd__buf_1
XFILLER_6_404 VGND VGND VPWR VPWR sky130_fd_sc_hd__fill_1
X_181_ net28 net60 VGND VGND VPWR VPWR Inst_N_IO_ConfigMem.Inst_frame1_bit3.Q sky130_fd_sc_hd__dlxtp_1
XTAP_TAPCELL_ROW_0_33 VGND VPWR sky130_fd_sc_hd__tapvpwrvgnd_1
Xfanout64 net66 VGND VGND VPWR VPWR net64 sky130_fd_sc_hd__clkbuf_2
Xfanout53 net54 VGND VGND VPWR VPWR net53 sky130_fd_sc_hd__clkbuf_2
XFILLER_9_275 VGND VGND VPWR VPWR sky130_fd_sc_hd__decap_4
XTAP_TAPCELL_ROW_9_97 VGND VPWR sky130_fd_sc_hd__tapvpwrvgnd_1
XFILLER_9_220 VGND VGND VPWR VPWR sky130_fd_sc_hd__decap_4
X_164_ net12 net56 VGND VGND VPWR VPWR Inst_N_IO_ConfigMem.Inst_frame2_bit18.Q sky130_fd_sc_hd__dlxtp_1
X_095_ net35 net98 net82 Inst_B_IO_1_bidirectional_frame_config_pass.Q Inst_N_IO_ConfigMem.Inst_frame1_bit13.Q
+ Inst_N_IO_ConfigMem.Inst_frame1_bit12.Q VGND VGND VPWR VPWR Inst_N_IO_switch_matrix.S4BEG13
+ sky130_fd_sc_hd__mux4_1
XFILLER_6_201 VGND VGND VPWR VPWR sky130_fd_sc_hd__fill_2
X_233_ net18 net65 VGND VGND VPWR VPWR Inst_N_IO_ConfigMem.Inst_frame0_bit23.Q sky130_fd_sc_hd__dlxtp_1
XFILLER_1_11 VGND VGND VPWR VPWR sky130_fd_sc_hd__fill_1
X_302_ Inst_N_IO_switch_matrix.S2BEG2 VGND VGND VPWR VPWR net174 sky130_fd_sc_hd__clkbuf_1
XTAP_TAPCELL_ROW_6_76 VGND VPWR sky130_fd_sc_hd__tapvpwrvgnd_1
XFILLER_3_259 VGND VGND VPWR VPWR sky130_fd_sc_hd__fill_1
X_216_ net31 net67 VGND VGND VPWR VPWR Inst_N_IO_ConfigMem.Inst_frame0_bit6.Q sky130_fd_sc_hd__dlxtp_1
X_147_ net14 net55 VGND VGND VPWR VPWR Inst_N_IO_ConfigMem.Inst_frame2_bit1.Q sky130_fd_sc_hd__dlxtp_1
X_078_ net47 net51 net49 net70 Inst_N_IO_ConfigMem.Inst_frame0_bit15.Q Inst_N_IO_ConfigMem.Inst_frame0_bit14.Q
+ VGND VGND VPWR VPWR Inst_N_IO_switch_matrix.SS4BEG14 sky130_fd_sc_hd__mux4_1
Xclkbuf_1_0__f_UserCLK_regs clknet_0_UserCLK_regs VGND VGND VPWR VPWR clknet_1_0__leaf_UserCLK_regs
+ sky130_fd_sc_hd__clkbuf_16
XPHY_EDGE_ROW_11_Right_11 VGND VGND VPWR VPWR sky130_fd_sc_hd__decap_3
XTAP_TAPCELL_ROW_3_55 VGND VPWR sky130_fd_sc_hd__tapvpwrvgnd_1
XTAP_TAPCELL_ROW_11_109 VGND VPWR sky130_fd_sc_hd__tapvpwrvgnd_1
XFILLER_1_335 VGND VGND VPWR VPWR sky130_fd_sc_hd__fill_1
XFILLER_4_162 VGND VGND VPWR VPWR sky130_fd_sc_hd__fill_2
Xfanout54 FrameStrobe[3] VGND VGND VPWR VPWR net54 sky130_fd_sc_hd__buf_2
X_180_ net25 net60 VGND VGND VPWR VPWR Inst_N_IO_ConfigMem.Inst_frame1_bit2.Q sky130_fd_sc_hd__dlxtp_1
Xfanout65 net66 VGND VGND VPWR VPWR net65 sky130_fd_sc_hd__buf_1
XTAP_TAPCELL_ROW_9_98 VGND VPWR sky130_fd_sc_hd__tapvpwrvgnd_1
XTAP_TAPCELL_ROW_0_34 VGND VPWR sky130_fd_sc_hd__tapvpwrvgnd_1
XPHY_EDGE_ROW_3_Left_15 VGND VGND VPWR VPWR sky130_fd_sc_hd__decap_3
X_163_ net11 net58 VGND VGND VPWR VPWR Inst_N_IO_ConfigMem.Inst_frame2_bit17.Q sky130_fd_sc_hd__dlxtp_1
XFILLER_10_253 VGND VGND VPWR VPWR sky130_fd_sc_hd__fill_2
X_301_ Inst_N_IO_switch_matrix.S2BEG1 VGND VGND VPWR VPWR net173 sky130_fd_sc_hd__buf_1
XFILLER_6_224 VGND VGND VPWR VPWR sky130_fd_sc_hd__decap_6
X_094_ net79 net95 net92 Inst_A_IO_1_bidirectional_frame_config_pass.Q Inst_N_IO_ConfigMem.Inst_frame1_bit14.Q
+ Inst_N_IO_ConfigMem.Inst_frame1_bit15.Q VGND VGND VPWR VPWR Inst_N_IO_switch_matrix.S4BEG14
+ sky130_fd_sc_hd__mux4_1
X_232_ net17 net64 VGND VGND VPWR VPWR Inst_N_IO_ConfigMem.Inst_frame0_bit22.Q sky130_fd_sc_hd__dlxtp_1
XFILLER_1_67 VGND VGND VPWR VPWR sky130_fd_sc_hd__fill_1
X_146_ net3 net55 VGND VGND VPWR VPWR Inst_N_IO_ConfigMem.Inst_frame2_bit0.Q sky130_fd_sc_hd__dlxtp_1
XTAP_TAPCELL_ROW_6_77 VGND VPWR sky130_fd_sc_hd__tapvpwrvgnd_1
X_215_ net30 net68 VGND VGND VPWR VPWR Inst_N_IO_ConfigMem.Inst_frame0_bit5.Q sky130_fd_sc_hd__dlxtp_1
X_077_ net48 net69 net50 net71 Inst_N_IO_ConfigMem.Inst_frame0_bit17.Q Inst_N_IO_ConfigMem.Inst_frame0_bit16.Q
+ VGND VGND VPWR VPWR Inst_N_IO_switch_matrix.SS4BEG15 sky130_fd_sc_hd__mux4_1
XFILLER_7_55 VGND VGND VPWR VPWR sky130_fd_sc_hd__fill_1
Xinput80 NN4END[3] VGND VGND VPWR VPWR net97 sky130_fd_sc_hd__buf_1
X_129_ net9 net54 VGND VGND VPWR VPWR Inst_N_IO_ConfigMem.Inst_frame3_bit15.Q sky130_fd_sc_hd__dlxtp_1
XTAP_TAPCELL_ROW_3_56 VGND VPWR sky130_fd_sc_hd__tapvpwrvgnd_1
Xfanout55 net59 VGND VGND VPWR VPWR net55 sky130_fd_sc_hd__buf_2
XTAP_TAPCELL_ROW_9_99 VGND VPWR sky130_fd_sc_hd__tapvpwrvgnd_1
XTAP_TAPCELL_ROW_0_24 VGND VPWR sky130_fd_sc_hd__tapvpwrvgnd_1
XTAP_TAPCELL_ROW_0_35 VGND VPWR sky130_fd_sc_hd__tapvpwrvgnd_1
Xfanout66 net68 VGND VGND VPWR VPWR net66 sky130_fd_sc_hd__dlymetal6s2s_1
XFILLER_3_409 VGND VGND VPWR VPWR sky130_fd_sc_hd__fill_1
X_093_ net72 net88 net91 Inst_B_IO_1_bidirectional_frame_config_pass.Q Inst_N_IO_ConfigMem.Inst_frame1_bit16.Q
+ Inst_N_IO_ConfigMem.Inst_frame1_bit17.Q VGND VGND VPWR VPWR Inst_N_IO_switch_matrix.S4BEG15
+ sky130_fd_sc_hd__mux4_1
XFILLER_10_210 VGND VGND VPWR VPWR sky130_fd_sc_hd__decap_3
X_231_ net16 net64 VGND VGND VPWR VPWR Inst_N_IO_ConfigMem.Inst_frame0_bit21.Q sky130_fd_sc_hd__dlxtp_1
X_162_ net10 net58 VGND VGND VPWR VPWR Inst_N_IO_ConfigMem.Inst_frame2_bit16.Q sky130_fd_sc_hd__dlxtp_1
X_300_ Inst_N_IO_switch_matrix.S2BEG0 VGND VGND VPWR VPWR net172 sky130_fd_sc_hd__clkbuf_1
Xinput1 A_O_top VGND VGND VPWR VPWR net1 sky130_fd_sc_hd__buf_2
X_076_ _014_ _016_ _019_ _003_ VGND VGND VPWR VPWR net104 sky130_fd_sc_hd__a22o_1
XTAP_TAPCELL_ROW_6_78 VGND VPWR sky130_fd_sc_hd__tapvpwrvgnd_1
X_145_ net27 net53 VGND VGND VPWR VPWR Inst_N_IO_ConfigMem.Inst_frame3_bit31.Q sky130_fd_sc_hd__dlxtp_1
X_214_ net29 net68 VGND VGND VPWR VPWR Inst_N_IO_ConfigMem.Inst_frame0_bit4.Q sky130_fd_sc_hd__dlxtp_1
Xclkbuf_1_0__f_UserCLK clknet_0_UserCLK VGND VGND VPWR VPWR clknet_1_0__leaf_UserCLK
+ sky130_fd_sc_hd__clkbuf_16
Xoutput190 net207 VGND VGND VPWR VPWR SS4BEG[12] sky130_fd_sc_hd__buf_2
XFILLER_11_371 VGND VGND VPWR VPWR sky130_fd_sc_hd__decap_8
X_128_ net8 net54 VGND VGND VPWR VPWR Inst_N_IO_ConfigMem.Inst_frame3_bit14.Q sky130_fd_sc_hd__dlxtp_1
X_059_ Inst_N_IO_ConfigMem.Inst_frame0_bit24.Q VGND VGND VPWR VPWR _004_ sky130_fd_sc_hd__inv_1
XFILLER_8_128 VGND VGND VPWR VPWR sky130_fd_sc_hd__fill_2
Xinput81 NN4END[4] VGND VGND VPWR VPWR net98 sky130_fd_sc_hd__clkbuf_2
XTAP_TAPCELL_ROW_3_57 VGND VPWR sky130_fd_sc_hd__tapvpwrvgnd_1
Xinput70 N4END[9] VGND VGND VPWR VPWR net87 sky130_fd_sc_hd__buf_1