*SPEF "ieee 1481-1999"
*DESIGN "W_IO"
*DATE "18:29:54 Sunday February 23, 2025"
*VENDOR "The OpenROAD Project"
*PROGRAM "OpenROAD"
*VERSION "87af90f72f3f9be1fdfa1d886f0dd8d8b8f34694"
*DESIGN_FLOW "NAME_SCOPE LOCAL" "PIN_CAP NONE"
*DIVIDER /
*DELIMITER :
*BUS_DELIMITER []
*T_UNIT 1 NS
*C_UNIT 1 PF
*R_UNIT 1 OHM
*L_UNIT 1 HENRY

*NAME_MAP
*1 A_I_top
*2 A_O_top
*3 A_T_top
*4 A_config_C_bit0
*5 A_config_C_bit1
*6 A_config_C_bit2
*7 A_config_C_bit3
*8 B_I_top
*9 B_O_top
*10 B_T_top
*11 B_config_C_bit0
*12 B_config_C_bit1
*13 B_config_C_bit2
*14 B_config_C_bit3
*15 E1BEG[0]
*16 E1BEG[1]
*17 E1BEG[2]
*18 E1BEG[3]
*19 E2BEG[0]
*20 E2BEG[1]
*21 E2BEG[2]
*22 E2BEG[3]
*23 E2BEG[4]
*24 E2BEG[5]
*25 E2BEG[6]
*26 E2BEG[7]
*27 E2BEGb[0]
*28 E2BEGb[1]
*29 E2BEGb[2]
*30 E2BEGb[3]
*31 E2BEGb[4]
*32 E2BEGb[5]
*33 E2BEGb[6]
*34 E2BEGb[7]
*35 E6BEG[0]
*36 E6BEG[10]
*37 E6BEG[11]
*38 E6BEG[1]
*39 E6BEG[2]
*40 E6BEG[3]
*41 E6BEG[4]
*42 E6BEG[5]
*43 E6BEG[6]
*44 E6BEG[7]
*45 E6BEG[8]
*46 E6BEG[9]
*47 EE4BEG[0]
*48 EE4BEG[10]
*49 EE4BEG[11]
*50 EE4BEG[12]
*51 EE4BEG[13]
*52 EE4BEG[14]
*53 EE4BEG[15]
*54 EE4BEG[1]
*55 EE4BEG[2]
*56 EE4BEG[3]
*57 EE4BEG[4]
*58 EE4BEG[5]
*59 EE4BEG[6]
*60 EE4BEG[7]
*61 EE4BEG[8]
*62 EE4BEG[9]
*63 FrameData[0]
*64 FrameData[10]
*65 FrameData[11]
*66 FrameData[12]
*67 FrameData[13]
*68 FrameData[14]
*69 FrameData[15]
*70 FrameData[16]
*71 FrameData[17]
*72 FrameData[18]
*73 FrameData[19]
*74 FrameData[1]
*75 FrameData[20]
*76 FrameData[21]
*77 FrameData[22]
*78 FrameData[23]
*79 FrameData[24]
*80 FrameData[25]
*81 FrameData[26]
*82 FrameData[27]
*83 FrameData[28]
*84 FrameData[29]
*85 FrameData[2]
*86 FrameData[30]
*87 FrameData[31]
*88 FrameData[3]
*89 FrameData[4]
*90 FrameData[5]
*91 FrameData[6]
*92 FrameData[7]
*93 FrameData[8]
*94 FrameData[9]
*95 FrameData_O[0]
*96 FrameData_O[10]
*97 FrameData_O[11]
*98 FrameData_O[12]
*99 FrameData_O[13]
*100 FrameData_O[14]
*101 FrameData_O[15]
*102 FrameData_O[16]
*103 FrameData_O[17]
*104 FrameData_O[18]
*105 FrameData_O[19]
*106 FrameData_O[1]
*107 FrameData_O[20]
*108 FrameData_O[21]
*109 FrameData_O[22]
*110 FrameData_O[23]
*111 FrameData_O[24]
*112 FrameData_O[25]
*113 FrameData_O[26]
*114 FrameData_O[27]
*115 FrameData_O[28]
*116 FrameData_O[29]
*117 FrameData_O[2]
*118 FrameData_O[30]
*119 FrameData_O[31]
*120 FrameData_O[3]
*121 FrameData_O[4]
*122 FrameData_O[5]
*123 FrameData_O[6]
*124 FrameData_O[7]
*125 FrameData_O[8]
*126 FrameData_O[9]
*127 FrameStrobe[0]
*128 FrameStrobe[10]
*129 FrameStrobe[11]
*130 FrameStrobe[12]
*131 FrameStrobe[13]
*132 FrameStrobe[14]
*133 FrameStrobe[15]
*134 FrameStrobe[16]
*135 FrameStrobe[17]
*136 FrameStrobe[18]
*137 FrameStrobe[19]
*138 FrameStrobe[1]
*139 FrameStrobe[2]
*140 FrameStrobe[3]
*141 FrameStrobe[4]
*142 FrameStrobe[5]
*143 FrameStrobe[6]
*144 FrameStrobe[7]
*145 FrameStrobe[8]
*146 FrameStrobe[9]
*147 FrameStrobe_O[0]
*148 FrameStrobe_O[10]
*149 FrameStrobe_O[11]
*150 FrameStrobe_O[12]
*151 FrameStrobe_O[13]
*152 FrameStrobe_O[14]
*153 FrameStrobe_O[15]
*154 FrameStrobe_O[16]
*155 FrameStrobe_O[17]
*156 FrameStrobe_O[18]
*157 FrameStrobe_O[19]
*158 FrameStrobe_O[1]
*159 FrameStrobe_O[2]
*160 FrameStrobe_O[3]
*161 FrameStrobe_O[4]
*162 FrameStrobe_O[5]
*163 FrameStrobe_O[6]
*164 FrameStrobe_O[7]
*165 FrameStrobe_O[8]
*166 FrameStrobe_O[9]
*167 UserCLK
*168 UserCLKo
*171 W1END[0]
*172 W1END[1]
*173 W1END[2]
*174 W1END[3]
*175 W2END[0]
*176 W2END[1]
*177 W2END[2]
*178 W2END[3]
*179 W2END[4]
*180 W2END[5]
*181 W2END[6]
*182 W2END[7]
*183 W2MID[0]
*184 W2MID[1]
*185 W2MID[2]
*186 W2MID[3]
*187 W2MID[4]
*188 W2MID[5]
*189 W2MID[6]
*190 W2MID[7]
*191 W6END[0]
*192 W6END[10]
*193 W6END[11]
*194 W6END[1]
*195 W6END[2]
*196 W6END[3]
*197 W6END[4]
*198 W6END[5]
*199 W6END[6]
*200 W6END[7]
*201 W6END[8]
*202 W6END[9]
*203 WW4END[0]
*204 WW4END[10]
*205 WW4END[11]
*206 WW4END[12]
*207 WW4END[13]
*208 WW4END[14]
*209 WW4END[15]
*210 WW4END[1]
*211 WW4END[2]
*212 WW4END[3]
*213 WW4END[4]
*214 WW4END[5]
*215 WW4END[6]
*216 WW4END[7]
*217 WW4END[8]
*218 WW4END[9]
*219 Inst_A_IO_1_bidirectional_frame_config_pass\.Q
*220 Inst_B_IO_1_bidirectional_frame_config_pass\.Q
*221 Inst_W_IO_ConfigMem\.Inst_frame0_bit0\.Q
*222 Inst_W_IO_ConfigMem\.Inst_frame0_bit1\.Q
*223 Inst_W_IO_ConfigMem\.Inst_frame0_bit10\.Q
*224 Inst_W_IO_ConfigMem\.Inst_frame0_bit11\.Q
*225 Inst_W_IO_ConfigMem\.Inst_frame0_bit12\.Q
*226 Inst_W_IO_ConfigMem\.Inst_frame0_bit13\.Q
*227 Inst_W_IO_ConfigMem\.Inst_frame0_bit14\.Q
*228 Inst_W_IO_ConfigMem\.Inst_frame0_bit15\.Q
*229 Inst_W_IO_ConfigMem\.Inst_frame0_bit16\.Q
*230 Inst_W_IO_ConfigMem\.Inst_frame0_bit17\.Q
*231 Inst_W_IO_ConfigMem\.Inst_frame0_bit18\.Q
*232 Inst_W_IO_ConfigMem\.Inst_frame0_bit19\.Q
*233 Inst_W_IO_ConfigMem\.Inst_frame0_bit2\.Q
*234 Inst_W_IO_ConfigMem\.Inst_frame0_bit20\.Q
*235 Inst_W_IO_ConfigMem\.Inst_frame0_bit21\.Q
*236 Inst_W_IO_ConfigMem\.Inst_frame0_bit22\.Q
*237 Inst_W_IO_ConfigMem\.Inst_frame0_bit23\.Q
*238 Inst_W_IO_ConfigMem\.Inst_frame0_bit24\.Q
*239 Inst_W_IO_ConfigMem\.Inst_frame0_bit25\.Q
*240 Inst_W_IO_ConfigMem\.Inst_frame0_bit26\.Q
*241 Inst_W_IO_ConfigMem\.Inst_frame0_bit27\.Q
*242 Inst_W_IO_ConfigMem\.Inst_frame0_bit28\.Q
*243 Inst_W_IO_ConfigMem\.Inst_frame0_bit29\.Q
*244 Inst_W_IO_ConfigMem\.Inst_frame0_bit3\.Q
*245 Inst_W_IO_ConfigMem\.Inst_frame0_bit30\.Q
*246 Inst_W_IO_ConfigMem\.Inst_frame0_bit31\.Q
*247 Inst_W_IO_ConfigMem\.Inst_frame0_bit4\.Q
*248 Inst_W_IO_ConfigMem\.Inst_frame0_bit5\.Q
*249 Inst_W_IO_ConfigMem\.Inst_frame0_bit6\.Q
*250 Inst_W_IO_ConfigMem\.Inst_frame0_bit7\.Q
*251 Inst_W_IO_ConfigMem\.Inst_frame0_bit8\.Q
*252 Inst_W_IO_ConfigMem\.Inst_frame0_bit9\.Q
*253 Inst_W_IO_ConfigMem\.Inst_frame1_bit0\.Q
*254 Inst_W_IO_ConfigMem\.Inst_frame1_bit1\.Q
*255 Inst_W_IO_ConfigMem\.Inst_frame1_bit10\.Q
*256 Inst_W_IO_ConfigMem\.Inst_frame1_bit11\.Q
*257 Inst_W_IO_ConfigMem\.Inst_frame1_bit12\.Q
*258 Inst_W_IO_ConfigMem\.Inst_frame1_bit13\.Q
*259 Inst_W_IO_ConfigMem\.Inst_frame1_bit14\.Q
*260 Inst_W_IO_ConfigMem\.Inst_frame1_bit15\.Q
*261 Inst_W_IO_ConfigMem\.Inst_frame1_bit16\.Q
*262 Inst_W_IO_ConfigMem\.Inst_frame1_bit17\.Q
*263 Inst_W_IO_ConfigMem\.Inst_frame1_bit18\.Q
*264 Inst_W_IO_ConfigMem\.Inst_frame1_bit19\.Q
*265 Inst_W_IO_ConfigMem\.Inst_frame1_bit2\.Q
*266 Inst_W_IO_ConfigMem\.Inst_frame1_bit20\.Q
*267 Inst_W_IO_ConfigMem\.Inst_frame1_bit21\.Q
*268 Inst_W_IO_ConfigMem\.Inst_frame1_bit22\.Q
*269 Inst_W_IO_ConfigMem\.Inst_frame1_bit23\.Q
*270 Inst_W_IO_ConfigMem\.Inst_frame1_bit24\.Q
*271 Inst_W_IO_ConfigMem\.Inst_frame1_bit25\.Q
*272 Inst_W_IO_ConfigMem\.Inst_frame1_bit26\.Q
*273 Inst_W_IO_ConfigMem\.Inst_frame1_bit27\.Q
*274 Inst_W_IO_ConfigMem\.Inst_frame1_bit28\.Q
*275 Inst_W_IO_ConfigMem\.Inst_frame1_bit29\.Q
*276 Inst_W_IO_ConfigMem\.Inst_frame1_bit3\.Q
*277 Inst_W_IO_ConfigMem\.Inst_frame1_bit30\.Q
*278 Inst_W_IO_ConfigMem\.Inst_frame1_bit31\.Q
*279 Inst_W_IO_ConfigMem\.Inst_frame1_bit4\.Q
*280 Inst_W_IO_ConfigMem\.Inst_frame1_bit5\.Q
*281 Inst_W_IO_ConfigMem\.Inst_frame1_bit6\.Q
*282 Inst_W_IO_ConfigMem\.Inst_frame1_bit7\.Q
*283 Inst_W_IO_ConfigMem\.Inst_frame1_bit8\.Q
*284 Inst_W_IO_ConfigMem\.Inst_frame1_bit9\.Q
*285 Inst_W_IO_ConfigMem\.Inst_frame2_bit0\.Q
*286 Inst_W_IO_ConfigMem\.Inst_frame2_bit1\.Q
*287 Inst_W_IO_ConfigMem\.Inst_frame2_bit10\.Q
*288 Inst_W_IO_ConfigMem\.Inst_frame2_bit11\.Q
*289 Inst_W_IO_ConfigMem\.Inst_frame2_bit12\.Q
*290 Inst_W_IO_ConfigMem\.Inst_frame2_bit13\.Q
*291 Inst_W_IO_ConfigMem\.Inst_frame2_bit14\.Q
*292 Inst_W_IO_ConfigMem\.Inst_frame2_bit15\.Q
*293 Inst_W_IO_ConfigMem\.Inst_frame2_bit16\.Q
*294 Inst_W_IO_ConfigMem\.Inst_frame2_bit17\.Q
*295 Inst_W_IO_ConfigMem\.Inst_frame2_bit18\.Q
*296 Inst_W_IO_ConfigMem\.Inst_frame2_bit19\.Q
*297 Inst_W_IO_ConfigMem\.Inst_frame2_bit2\.Q
*298 Inst_W_IO_ConfigMem\.Inst_frame2_bit20\.Q
*299 Inst_W_IO_ConfigMem\.Inst_frame2_bit21\.Q
*300 Inst_W_IO_ConfigMem\.Inst_frame2_bit22\.Q
*301 Inst_W_IO_ConfigMem\.Inst_frame2_bit23\.Q
*302 Inst_W_IO_ConfigMem\.Inst_frame2_bit24\.Q
*303 Inst_W_IO_ConfigMem\.Inst_frame2_bit25\.Q
*304 Inst_W_IO_ConfigMem\.Inst_frame2_bit26\.Q
*305 Inst_W_IO_ConfigMem\.Inst_frame2_bit27\.Q
*306 Inst_W_IO_ConfigMem\.Inst_frame2_bit28\.Q
*307 Inst_W_IO_ConfigMem\.Inst_frame2_bit29\.Q
*308 Inst_W_IO_ConfigMem\.Inst_frame2_bit3\.Q
*309 Inst_W_IO_ConfigMem\.Inst_frame2_bit30\.Q
*310 Inst_W_IO_ConfigMem\.Inst_frame2_bit31\.Q
*311 Inst_W_IO_ConfigMem\.Inst_frame2_bit4\.Q
*312 Inst_W_IO_ConfigMem\.Inst_frame2_bit5\.Q
*313 Inst_W_IO_ConfigMem\.Inst_frame2_bit6\.Q
*314 Inst_W_IO_ConfigMem\.Inst_frame2_bit7\.Q
*315 Inst_W_IO_ConfigMem\.Inst_frame2_bit8\.Q
*316 Inst_W_IO_ConfigMem\.Inst_frame2_bit9\.Q
*317 Inst_W_IO_ConfigMem\.Inst_frame3_bit22\.Q
*318 Inst_W_IO_ConfigMem\.Inst_frame3_bit23\.Q
*319 Inst_W_IO_ConfigMem\.Inst_frame3_bit24\.Q
*320 Inst_W_IO_ConfigMem\.Inst_frame3_bit25\.Q
*321 Inst_W_IO_ConfigMem\.Inst_frame3_bit26\.Q
*322 Inst_W_IO_ConfigMem\.Inst_frame3_bit27\.Q
*323 Inst_W_IO_ConfigMem\.Inst_frame3_bit28\.Q
*324 Inst_W_IO_ConfigMem\.Inst_frame3_bit29\.Q
*325 Inst_W_IO_ConfigMem\.Inst_frame3_bit30\.Q
*326 Inst_W_IO_ConfigMem\.Inst_frame3_bit31\.Q
*327 Inst_W_IO_switch_matrix\.E1BEG0
*328 Inst_W_IO_switch_matrix\.E1BEG1
*329 Inst_W_IO_switch_matrix\.E1BEG2
*330 Inst_W_IO_switch_matrix\.E1BEG3
*331 Inst_W_IO_switch_matrix\.E2BEG0
*332 Inst_W_IO_switch_matrix\.E2BEG1
*333 Inst_W_IO_switch_matrix\.E2BEG2
*334 Inst_W_IO_switch_matrix\.E2BEG3
*335 Inst_W_IO_switch_matrix\.E2BEG4
*336 Inst_W_IO_switch_matrix\.E2BEG5
*337 Inst_W_IO_switch_matrix\.E2BEG6
*338 Inst_W_IO_switch_matrix\.E2BEG7
*339 Inst_W_IO_switch_matrix\.E2BEGb0
*340 Inst_W_IO_switch_matrix\.E2BEGb1
*341 Inst_W_IO_switch_matrix\.E2BEGb2
*342 Inst_W_IO_switch_matrix\.E2BEGb3
*343 Inst_W_IO_switch_matrix\.E2BEGb4
*344 Inst_W_IO_switch_matrix\.E2BEGb5
*345 Inst_W_IO_switch_matrix\.E2BEGb6
*346 Inst_W_IO_switch_matrix\.E2BEGb7
*347 Inst_W_IO_switch_matrix\.E6BEG0
*348 Inst_W_IO_switch_matrix\.E6BEG1
*349 Inst_W_IO_switch_matrix\.E6BEG10
*350 Inst_W_IO_switch_matrix\.E6BEG11
*351 Inst_W_IO_switch_matrix\.E6BEG2
*352 Inst_W_IO_switch_matrix\.E6BEG3
*353 Inst_W_IO_switch_matrix\.E6BEG4
*354 Inst_W_IO_switch_matrix\.E6BEG5
*355 Inst_W_IO_switch_matrix\.E6BEG6
*356 Inst_W_IO_switch_matrix\.E6BEG7
*357 Inst_W_IO_switch_matrix\.E6BEG8
*358 Inst_W_IO_switch_matrix\.E6BEG9
*359 Inst_W_IO_switch_matrix\.EE4BEG0
*360 Inst_W_IO_switch_matrix\.EE4BEG1
*361 Inst_W_IO_switch_matrix\.EE4BEG10
*362 Inst_W_IO_switch_matrix\.EE4BEG11
*363 Inst_W_IO_switch_matrix\.EE4BEG12
*364 Inst_W_IO_switch_matrix\.EE4BEG13
*365 Inst_W_IO_switch_matrix\.EE4BEG14
*366 Inst_W_IO_switch_matrix\.EE4BEG15
*367 Inst_W_IO_switch_matrix\.EE4BEG2
*368 Inst_W_IO_switch_matrix\.EE4BEG3
*369 Inst_W_IO_switch_matrix\.EE4BEG4
*370 Inst_W_IO_switch_matrix\.EE4BEG5
*371 Inst_W_IO_switch_matrix\.EE4BEG6
*372 Inst_W_IO_switch_matrix\.EE4BEG7
*373 Inst_W_IO_switch_matrix\.EE4BEG8
*374 Inst_W_IO_switch_matrix\.EE4BEG9
*375 UserCLK_regs
*376 _000_
*377 _001_
*378 _002_
*379 _003_
*380 _004_
*381 _005_
*382 _006_
*383 _007_
*384 _008_
*385 _009_
*386 _010_
*387 _011_
*388 _012_
*389 _013_
*390 _014_
*391 _015_
*392 _016_
*393 _017_
*394 _018_
*395 _019_
*396 _020_
*397 _021_
*398 _022_
*399 _023_
*400 _024_
*401 _025_
*402 _026_
*403 _027_
*404 _028_
*405 _029_
*406 _030_
*407 _031_
*408 clknet_0_UserCLK
*409 clknet_0_UserCLK_regs
*410 clknet_1_0__leaf_UserCLK
*411 clknet_1_0__leaf_UserCLK_regs
*412 clknet_1_1__leaf_UserCLK_regs
*413 net1
*414 net10
*415 net100
*416 net101
*417 net102
*418 net103
*419 net104
*420 net105
*421 net106
*422 net107
*423 net108
*424 net109
*425 net11
*426 net110
*427 net111
*428 net112
*429 net113
*430 net114
*431 net115
*432 net116
*433 net117
*434 net118
*435 net119
*436 net12
*437 net120
*438 net121
*439 net122
*440 net123
*441 net124
*442 net125
*443 net126
*444 net127
*445 net128
*446 net129
*447 net13
*448 net130
*449 net131
*450 net132
*451 net133
*452 net134
*453 net135
*454 net136
*455 net137
*456 net138
*457 net139
*458 net14
*459 net140
*460 net141
*461 net142
*462 net143
*463 net144
*464 net145
*465 net146
*466 net147
*467 net148
*468 net149
*469 net15
*470 net150
*471 net151
*472 net152
*473 net153
*474 net154
*475 net155
*476 net156
*477 net157
*478 net158
*479 net159
*480 net16
*481 net160
*482 net161
*483 net162
*484 net163
*485 net164
*486 net165
*487 net166
*488 net167
*489 net168
*490 net169
*491 net17
*492 net170
*493 net171
*494 net172
*495 net173
*496 net174
*497 net175
*498 net176
*499 net177
*500 net178
*501 net179
*502 net18
*503 net180
*504 net181
*505 net182
*506 net183
*507 net184
*508 net185
*509 net186
*510 net187
*511 net188
*512 net189
*513 net19
*514 net190
*515 net191
*516 net192
*517 net193
*518 net194
*519 net195
*520 net196
*521 net197
*522 net198
*523 net199
*524 net2
*525 net20
*526 net200
*527 net201
*528 net202
*529 net203
*530 net204
*531 net205
*532 net206
*533 net207
*534 net208
*535 net209
*536 net21
*537 net210
*538 net211
*539 net22
*540 net23
*541 net24
*542 net25
*543 net26
*544 net27
*545 net28
*546 net29
*547 net3
*548 net30
*549 net31
*550 net32
*551 net33
*552 net34
*553 net35
*554 net36
*555 net37
*556 net38
*557 net39
*558 net4
*559 net40
*560 net41
*561 net42
*562 net43
*563 net44
*564 net45
*565 net46
*566 net47
*567 net48
*568 net49
*569 net5
*570 net50
*571 net51
*572 net52
*573 net53
*574 net54
*575 net55
*576 net56
*577 net57
*578 net58
*579 net59
*580 net6
*581 net60
*582 net61
*583 net62
*584 net63
*585 net64
*586 net65
*587 net66
*588 net67
*589 net68
*590 net69
*591 net7
*592 net70
*593 net71
*594 net72
*595 net73
*596 net74
*597 net75
*598 net76
*599 net77
*600 net78
*601 net79
*602 net8
*603 net80
*604 net81
*605 net82
*606 net83
*607 net84
*608 net85
*609 net86
*610 net87
*611 net88
*612 net89
*613 net9
*614 net90
*615 net91
*616 net92
*617 net93
*618 net94
*619 net95
*620 net96
*621 net97
*622 net98
*623 net99
*624 ANTENNA_1
*625 ANTENNA_10
*626 ANTENNA_11
*627 ANTENNA_12
*628 ANTENNA_13
*629 ANTENNA_14
*630 ANTENNA_15
*631 ANTENNA_16
*632 ANTENNA_17
*633 ANTENNA_18
*634 ANTENNA_19
*635 ANTENNA_2
*636 ANTENNA_20
*637 ANTENNA_3
*638 ANTENNA_4
*639 ANTENNA_5
*640 ANTENNA_6
*641 ANTENNA_7
*642 ANTENNA_8
*643 ANTENNA_9
*644 FILLER_0_11
*645 FILLER_0_17
*646 FILLER_0_25
*647 FILLER_0_29
*648 FILLER_0_3
*649 FILLER_0_41
*650 FILLER_0_53
*651 FILLER_0_57
*652 FILLER_0_69
*653 FILLER_0_81
*654 FILLER_0_85
*655 FILLER_0_93
*656 FILLER_10_29
*657 FILLER_10_3
*658 FILLER_10_41
*659 FILLER_10_64
*660 FILLER_11_11
*661 FILLER_11_25
*662 FILLER_11_37
*663 FILLER_11_49
*664 FILLER_11_55
*665 FILLER_11_57
*666 FILLER_12_19
*667 FILLER_12_27
*668 FILLER_12_29
*669 FILLER_12_41
*670 FILLER_12_53
*671 FILLER_12_65
*672 FILLER_12_7
*673 FILLER_12_83
*674 FILLER_12_90
*675 FILLER_13_15
*676 FILLER_13_29
*677 FILLER_13_54
*678 FILLER_13_64
*679 FILLER_13_7
*680 FILLER_13_79
*681 FILLER_13_84
*682 FILLER_14_11
*683 FILLER_14_15
*684 FILLER_14_41
*685 FILLER_14_49
*686 FILLER_14_61
*687 FILLER_14_74
*688 FILLER_15_22
*689 FILLER_15_30
*690 FILLER_15_42
*691 FILLER_15_47
*692 FILLER_15_5
*693 FILLER_15_55
*694 FILLER_15_57
*695 FILLER_16_20
*696 FILLER_16_29
*697 FILLER_16_41
*698 FILLER_16_68
*699 FILLER_16_7
*700 FILLER_16_94
*701 FILLER_17_45
*702 FILLER_17_53
*703 FILLER_17_57
*704 FILLER_17_61
*705 FILLER_17_69
*706 FILLER_17_7
*707 FILLER_18_22
*708 FILLER_18_29
*709 FILLER_18_5
*710 FILLER_18_70
*711 FILLER_18_74
*712 FILLER_19_3
*713 FILLER_19_42
*714 FILLER_19_54
*715 FILLER_1_15
*716 FILLER_1_27
*717 FILLER_1_3
*718 FILLER_1_39
*719 FILLER_1_51
*720 FILLER_1_55
*721 FILLER_1_57
*722 FILLER_1_69
*723 FILLER_1_81
*724 FILLER_1_93
*725 FILLER_20_11
*726 FILLER_20_23
*727 FILLER_20_27
*728 FILLER_20_29
*729 FILLER_20_41
*730 FILLER_20_53
*731 FILLER_20_59
*732 FILLER_20_63
*733 FILLER_20_71
*734 FILLER_20_94
*735 FILLER_21_3
*736 FILLER_21_40
*737 FILLER_21_55
*738 FILLER_21_57
*739 FILLER_21_90
*740 FILLER_22_20
*741 FILLER_22_29
*742 FILLER_22_33
*743 FILLER_22_37
*744 FILLER_22_62
*745 FILLER_22_7
*746 FILLER_22_85
*747 FILLER_22_90
*748 FILLER_23_21
*749 FILLER_23_33
*750 FILLER_23_45
*751 FILLER_23_53
*752 FILLER_23_57
*753 FILLER_23_7
*754 FILLER_24_22
*755 FILLER_24_29
*756 FILLER_24_3
*757 FILLER_24_50
*758 FILLER_24_54
*759 FILLER_24_66
*760 FILLER_24_9
*761 FILLER_25_13
*762 FILLER_25_69
*763 FILLER_26_19
*764 FILLER_26_27
*765 FILLER_26_29
*766 FILLER_26_3
*767 FILLER_26_49
*768 FILLER_26_73
*769 FILLER_27_39
*770 FILLER_27_51
*771 FILLER_27_55
*772 FILLER_27_57
*773 FILLER_27_69
*774 FILLER_28_17
*775 FILLER_28_25
*776 FILLER_28_29
*777 FILLER_28_41
*778 FILLER_28_53
*779 FILLER_28_57
*780 FILLER_28_77
*781 FILLER_29_22
*782 FILLER_29_49
*783 FILLER_29_55
*784 FILLER_29_69
*785 FILLER_29_9
*786 FILLER_2_15
*787 FILLER_2_27
*788 FILLER_2_29
*789 FILLER_2_3
*790 FILLER_2_41
*791 FILLER_2_53
*792 FILLER_2_65
*793 FILLER_2_77
*794 FILLER_2_83
*795 FILLER_2_85
*796 FILLER_2_93
*797 FILLER_30_21
*798 FILLER_30_27
*799 FILLER_30_3
*800 FILLER_30_53
*801 FILLER_30_61
*802 FILLER_30_75
*803 FILLER_30_85
*804 FILLER_31_43
*805 FILLER_31_55
*806 FILLER_31_6
*807 FILLER_31_69
*808 FILLER_32_19
*809 FILLER_32_27
*810 FILLER_32_29
*811 FILLER_32_38
*812 FILLER_32_50
*813 FILLER_32_56
*814 FILLER_32_6
*815 FILLER_32_85
*816 FILLER_33_12
*817 FILLER_33_24
*818 FILLER_33_3
*819 FILLER_33_36
*820 FILLER_33_48
*821 FILLER_33_57
*822 FILLER_33_7
*823 FILLER_33_72
*824 FILLER_34_24
*825 FILLER_34_29
*826 FILLER_34_35
*827 FILLER_34_44
*828 FILLER_34_56
*829 FILLER_34_62
*830 FILLER_34_85
*831 FILLER_34_9
*832 FILLER_35_48
*833 FILLER_35_57
*834 FILLER_35_90
*835 FILLER_36_19
*836 FILLER_36_27
*837 FILLER_36_29
*838 FILLER_36_3
*839 FILLER_36_37
*840 FILLER_36_62
*841 FILLER_36_74
*842 FILLER_36_85
*843 FILLER_37_18
*844 FILLER_37_30
*845 FILLER_37_46
*846 FILLER_37_52
*847 FILLER_37_69
*848 FILLER_37_77
*849 FILLER_38_21
*850 FILLER_38_27
*851 FILLER_38_29
*852 FILLER_38_41
*853 FILLER_38_53
*854 FILLER_38_64
*855 FILLER_38_85
*856 FILLER_39_22
*857 FILLER_39_3
*858 FILLER_39_47
*859 FILLER_39_55
*860 FILLER_39_57
*861 FILLER_39_65
*862 FILLER_39_82
*863 FILLER_39_86
*864 FILLER_39_9
*865 FILLER_3_15
*866 FILLER_3_27
*867 FILLER_3_3
*868 FILLER_3_39
*869 FILLER_3_51
*870 FILLER_3_55
*871 FILLER_3_57
*872 FILLER_3_69
*873 FILLER_3_81
*874 FILLER_3_93
*875 FILLER_40_26
*876 FILLER_40_29
*877 FILLER_40_41
*878 FILLER_40_6
*879 FILLER_40_77
*880 FILLER_40_85
*881 FILLER_41_50
*882 FILLER_41_57
*883 FILLER_41_6
*884 FILLER_41_65
*885 FILLER_41_89
*886 FILLER_42_10
*887 FILLER_42_22
*888 FILLER_42_29
*889 FILLER_42_37
*890 FILLER_42_52
*891 FILLER_42_56
*892 FILLER_42_6
*893 FILLER_42_85
*894 FILLER_43_27
*895 FILLER_43_3
*896 FILLER_43_39
*897 FILLER_43_51
*898 FILLER_43_55
*899 FILLER_43_57
*900 FILLER_43_71
*901 FILLER_43_94
*902 FILLER_44_10
*903 FILLER_44_24
*904 FILLER_44_29
*905 FILLER_44_35
*906 FILLER_44_6
*907 FILLER_44_64
*908 FILLER_44_78
*909 FILLER_44_85
*910 FILLER_45_53
*911 FILLER_45_57
*912 FILLER_45_6
*913 FILLER_45_64
*914 FILLER_45_76
*915 FILLER_46_17
*916 FILLER_46_25
*917 FILLER_46_29
*918 FILLER_46_3
*919 FILLER_46_33
*920 FILLER_46_49
*921 FILLER_46_61
*922 FILLER_46_73
*923 FILLER_46_79
*924 FILLER_46_85
*925 FILLER_47_35
*926 FILLER_47_41
*927 FILLER_47_54
*928 FILLER_47_57
*929 FILLER_47_6
*930 FILLER_47_70
*931 FILLER_48_19
*932 FILLER_48_29
*933 FILLER_48_43
*934 FILLER_48_53
*935 FILLER_48_57
*936 FILLER_48_70
*937 FILLER_48_78
*938 FILLER_48_85
*939 FILLER_49_19
*940 FILLER_49_31
*941 FILLER_49_45
*942 FILLER_49_53
*943 FILLER_49_57
*944 FILLER_49_6
*945 FILLER_49_65
*946 FILLER_4_19
*947 FILLER_4_27
*948 FILLER_4_29
*949 FILLER_4_41
*950 FILLER_4_51
*951 FILLER_4_63
*952 FILLER_4_7
*953 FILLER_4_75
*954 FILLER_4_83
*955 FILLER_4_85
*956 FILLER_4_93
*957 FILLER_50_10
*958 FILLER_50_22
*959 FILLER_50_29
*960 FILLER_50_37
*961 FILLER_50_6
*962 FILLER_50_71
*963 FILLER_50_94
*964 FILLER_51_31
*965 FILLER_51_43
*966 FILLER_51_55
*967 FILLER_51_60
*968 FILLER_51_7
*969 FILLER_52_3
*970 FILLER_52_32
*971 FILLER_52_44
*972 FILLER_52_68
*973 FILLER_52_72
*974 FILLER_52_85
*975 FILLER_53_16
*976 FILLER_53_27
*977 FILLER_53_3
*978 FILLER_53_52
*979 FILLER_53_57
*980 FILLER_53_69
*981 FILLER_54_29
*982 FILLER_54_56
*983 FILLER_54_64
*984 FILLER_54_79
*985 FILLER_54_85
*986 FILLER_55_19
*987 FILLER_55_28
*988 FILLER_55_40
*989 FILLER_55_57
*990 FILLER_55_7
*991 FILLER_55_74
*992 FILLER_56_18
*993 FILLER_56_26
*994 FILLER_56_29
*995 FILLER_56_41
*996 FILLER_56_49
*997 FILLER_57_12
*998 FILLER_57_35
*999 FILLER_57_47
*1000 FILLER_57_55
*1001 FILLER_57_57
*1002 FILLER_57_69
*1003 FILLER_57_7
*1004 FILLER_57_93
*1005 FILLER_58_18
*1006 FILLER_58_24
*1007 FILLER_58_53
*1008 FILLER_58_85
*1009 FILLER_59_11
*1010 FILLER_59_19
*1011 FILLER_59_60
*1012 FILLER_5_19
*1013 FILLER_5_25
*1014 FILLER_5_29
*1015 FILLER_5_39
*1016 FILLER_5_55
*1017 FILLER_5_57
*1018 FILLER_5_7
*1019 FILLER_5_81
*1020 FILLER_60_10
*1021 FILLER_60_22
*1022 FILLER_60_29
*1023 FILLER_60_3
*1024 FILLER_60_37
*1025 FILLER_60_78
*1026 FILLER_60_93
*1027 FILLER_61_10
*1028 FILLER_61_36
*1029 FILLER_61_48
*1030 FILLER_61_60
*1031 FILLER_61_68
*1032 FILLER_61_92
*1033 FILLER_62_22
*1034 FILLER_62_49
*1035 FILLER_62_7
*1036 FILLER_62_82
*1037 FILLER_62_85
*1038 FILLER_63_19
*1039 FILLER_63_3
*1040 FILLER_63_54
*1041 FILLER_63_57
*1042 FILLER_63_65
*1043 FILLER_64_10
*1044 FILLER_64_17
*1045 FILLER_64_25
*1046 FILLER_64_29
*1047 FILLER_64_33
*1048 FILLER_64_46
*1049 FILLER_64_82
*1050 FILLER_64_85
*1051 FILLER_65_52
*1052 FILLER_65_77
*1053 FILLER_66_21
*1054 FILLER_66_27
*1055 FILLER_66_29
*1056 FILLER_66_54
*1057 FILLER_66_7
*1058 FILLER_66_70
*1059 FILLER_66_78
*1060 FILLER_66_85
*1061 FILLER_67_19
*1062 FILLER_67_27
*1063 FILLER_67_33
*1064 FILLER_67_48
*1065 FILLER_67_53
*1066 FILLER_67_60
*1067 FILLER_67_7
*1068 FILLER_67_72
*1069 FILLER_67_80
*1070 FILLER_68_19
*1071 FILLER_68_27
*1072 FILLER_68_29
*1073 FILLER_68_35
*1074 FILLER_68_48
*1075 FILLER_68_60
*1076 FILLER_68_7
*1077 FILLER_68_72
*1078 FILLER_68_85
*1079 FILLER_69_15
*1080 FILLER_69_27
*1081 FILLER_69_3
*1082 FILLER_69_39
*1083 FILLER_69_51
*1084 FILLER_69_55
*1085 FILLER_69_57
*1086 FILLER_69_65
*1087 FILLER_69_70
*1088 FILLER_69_78
*1089 FILLER_69_86
*1090 FILLER_6_15
*1091 FILLER_6_3
*1092 FILLER_6_38
*1093 FILLER_6_46
*1094 FILLER_6_51
*1095 FILLER_6_83
*1096 FILLER_70_19
*1097 FILLER_70_27
*1098 FILLER_70_29
*1099 FILLER_70_41
*1100 FILLER_70_53
*1101 FILLER_70_63
*1102 FILLER_70_67
*1103 FILLER_70_7
*1104 FILLER_70_73
*1105 FILLER_70_76
*1106 FILLER_70_79
*1107 FILLER_70_90
*1108 FILLER_70_93
*1109 FILLER_71_19
*1110 FILLER_71_31
*1111 FILLER_71_43
*1112 FILLER_71_55
*1113 FILLER_71_57
*1114 FILLER_71_66
*1115 FILLER_71_7
*1116 FILLER_71_80
*1117 FILLER_71_83
*1118 FILLER_71_94
*1119 FILLER_72_18
*1120 FILLER_72_26
*1121 FILLER_72_29
*1122 FILLER_72_41
*1123 FILLER_72_53
*1124 FILLER_72_6
*1125 FILLER_72_79
*1126 FILLER_72_85
*1127 FILLER_73_13
*1128 FILLER_73_18
*1129 FILLER_73_23
*1130 FILLER_73_3
*1131 FILLER_73_33
*1132 FILLER_73_38
*1133 FILLER_73_43
*1134 FILLER_73_57
*1135 FILLER_73_63
*1136 FILLER_73_74
*1137 FILLER_73_8
*1138 FILLER_73_82
*1139 FILLER_73_93
*1140 FILLER_7_23
*1141 FILLER_7_31
*1142 FILLER_7_44
*1143 FILLER_7_69
*1144 FILLER_8_15
*1145 FILLER_8_27
*1146 FILLER_8_29
*1147 FILLER_8_41
*1148 FILLER_8_63
*1149 FILLER_9_16
*1150 FILLER_9_29
*1151 FILLER_9_54
*1152 FILLER_9_57
*1153 FILLER_9_64
*1154 FILLER_9_7
*1155 FILLER_9_71
*1156 PHY_EDGE_ROW_0_Left_74
*1157 PHY_EDGE_ROW_0_Right_0
*1158 PHY_EDGE_ROW_10_Left_84
*1159 PHY_EDGE_ROW_10_Right_10
*1160 PHY_EDGE_ROW_11_Left_85
*1161 PHY_EDGE_ROW_11_Right_11
*1162 PHY_EDGE_ROW_12_Left_86
*1163 PHY_EDGE_ROW_12_Right_12
*1164 PHY_EDGE_ROW_13_Left_87
*1165 PHY_EDGE_ROW_13_Right_13
*1166 PHY_EDGE_ROW_14_Left_88
*1167 PHY_EDGE_ROW_14_Right_14
*1168 PHY_EDGE_ROW_15_Left_89
*1169 PHY_EDGE_ROW_15_Right_15
*1170 PHY_EDGE_ROW_16_Left_90
*1171 PHY_EDGE_ROW_16_Right_16
*1172 PHY_EDGE_ROW_17_Left_91
*1173 PHY_EDGE_ROW_17_Right_17
*1174 PHY_EDGE_ROW_18_Left_92
*1175 PHY_EDGE_ROW_18_Right_18
*1176 PHY_EDGE_ROW_19_Left_93
*1177 PHY_EDGE_ROW_19_Right_19
*1178 PHY_EDGE_ROW_1_Left_75
*1179 PHY_EDGE_ROW_1_Right_1
*1180 PHY_EDGE_ROW_20_Left_94
*1181 PHY_EDGE_ROW_20_Right_20
*1182 PHY_EDGE_ROW_21_Left_95
*1183 PHY_EDGE_ROW_21_Right_21
*1184 PHY_EDGE_ROW_22_Left_96
*1185 PHY_EDGE_ROW_22_Right_22
*1186 PHY_EDGE_ROW_23_Left_97
*1187 PHY_EDGE_ROW_23_Right_23
*1188 PHY_EDGE_ROW_24_Left_98
*1189 PHY_EDGE_ROW_24_Right_24
*1190 PHY_EDGE_ROW_25_Left_99
*1191 PHY_EDGE_ROW_25_Right_25
*1192 PHY_EDGE_ROW_26_Left_100
*1193 PHY_EDGE_ROW_26_Right_26
*1194 PHY_EDGE_ROW_27_Left_101
*1195 PHY_EDGE_ROW_27_Right_27
*1196 PHY_EDGE_ROW_28_Left_102
*1197 PHY_EDGE_ROW_28_Right_28
*1198 PHY_EDGE_ROW_29_Left_103
*1199 PHY_EDGE_ROW_29_Right_29
*1200 PHY_EDGE_ROW_2_Left_76
*1201 PHY_EDGE_ROW_2_Right_2
*1202 PHY_EDGE_ROW_30_Left_104
*1203 PHY_EDGE_ROW_30_Right_30
*1204 PHY_EDGE_ROW_31_Left_105
*1205 PHY_EDGE_ROW_31_Right_31
*1206 PHY_EDGE_ROW_32_Left_106
*1207 PHY_EDGE_ROW_32_Right_32
*1208 PHY_EDGE_ROW_33_Left_107
*1209 PHY_EDGE_ROW_33_Right_33
*1210 PHY_EDGE_ROW_34_Left_108
*1211 PHY_EDGE_ROW_34_Right_34
*1212 PHY_EDGE_ROW_35_Left_109
*1213 PHY_EDGE_ROW_35_Right_35
*1214 PHY_EDGE_ROW_36_Left_110
*1215 PHY_EDGE_ROW_36_Right_36
*1216 PHY_EDGE_ROW_37_Left_111
*1217 PHY_EDGE_ROW_37_Right_37
*1218 PHY_EDGE_ROW_38_Left_112
*1219 PHY_EDGE_ROW_38_Right_38
*1220 PHY_EDGE_ROW_39_Left_113
*1221 PHY_EDGE_ROW_39_Right_39
*1222 PHY_EDGE_ROW_3_Left_77
*1223 PHY_EDGE_ROW_3_Right_3
*1224 PHY_EDGE_ROW_40_Left_114
*1225 PHY_EDGE_ROW_40_Right_40
*1226 PHY_EDGE_ROW_41_Left_115
*1227 PHY_EDGE_ROW_41_Right_41
*1228 PHY_EDGE_ROW_42_Left_116
*1229 PHY_EDGE_ROW_42_Right_42
*1230 PHY_EDGE_ROW_43_Left_117
*1231 PHY_EDGE_ROW_43_Right_43
*1232 PHY_EDGE_ROW_44_Left_118
*1233 PHY_EDGE_ROW_44_Right_44
*1234 PHY_EDGE_ROW_45_Left_119
*1235 PHY_EDGE_ROW_45_Right_45
*1236 PHY_EDGE_ROW_46_Left_120
*1237 PHY_EDGE_ROW_46_Right_46
*1238 PHY_EDGE_ROW_47_Left_121
*1239 PHY_EDGE_ROW_47_Right_47
*1240 PHY_EDGE_ROW_48_Left_122
*1241 PHY_EDGE_ROW_48_Right_48
*1242 PHY_EDGE_ROW_49_Left_123
*1243 PHY_EDGE_ROW_49_Right_49
*1244 PHY_EDGE_ROW_4_Left_78
*1245 PHY_EDGE_ROW_4_Right_4
*1246 PHY_EDGE_ROW_50_Left_124
*1247 PHY_EDGE_ROW_50_Right_50
*1248 PHY_EDGE_ROW_51_Left_125
*1249 PHY_EDGE_ROW_51_Right_51
*1250 PHY_EDGE_ROW_52_Left_126
*1251 PHY_EDGE_ROW_52_Right_52
*1252 PHY_EDGE_ROW_53_Left_127
*1253 PHY_EDGE_ROW_53_Right_53
*1254 PHY_EDGE_ROW_54_Left_128
*1255 PHY_EDGE_ROW_54_Right_54
*1256 PHY_EDGE_ROW_55_Left_129
*1257 PHY_EDGE_ROW_55_Right_55
*1258 PHY_EDGE_ROW_56_Left_130
*1259 PHY_EDGE_ROW_56_Right_56
*1260 PHY_EDGE_ROW_57_Left_131
*1261 PHY_EDGE_ROW_57_Right_57
*1262 PHY_EDGE_ROW_58_Left_132
*1263 PHY_EDGE_ROW_58_Right_58
*1264 PHY_EDGE_ROW_59_Left_133
*1265 PHY_EDGE_ROW_59_Right_59
*1266 PHY_EDGE_ROW_5_Left_79
*1267 PHY_EDGE_ROW_5_Right_5
*1268 PHY_EDGE_ROW_60_Left_134
*1269 PHY_EDGE_ROW_60_Right_60
*1270 PHY_EDGE_ROW_61_Left_135
*1271 PHY_EDGE_ROW_61_Right_61
*1272 PHY_EDGE_ROW_62_Left_136
*1273 PHY_EDGE_ROW_62_Right_62
*1274 PHY_EDGE_ROW_63_Left_137
*1275 PHY_EDGE_ROW_63_Right_63
*1276 PHY_EDGE_ROW_64_Left_138
*1277 PHY_EDGE_ROW_64_Right_64
*1278 PHY_EDGE_ROW_65_Left_139
*1279 PHY_EDGE_ROW_65_Right_65
*1280 PHY_EDGE_ROW_66_Left_140
*1281 PHY_EDGE_ROW_66_Right_66
*1282 PHY_EDGE_ROW_67_Left_141
*1283 PHY_EDGE_ROW_67_Right_67
*1284 PHY_EDGE_ROW_68_Left_142
*1285 PHY_EDGE_ROW_68_Right_68
*1286 PHY_EDGE_ROW_69_Left_143
*1287 PHY_EDGE_ROW_69_Right_69
*1288 PHY_EDGE_ROW_6_Left_80
*1289 PHY_EDGE_ROW_6_Right_6
*1290 PHY_EDGE_ROW_70_Left_144
*1291 PHY_EDGE_ROW_70_Right_70
*1292 PHY_EDGE_ROW_71_Left_145
*1293 PHY_EDGE_ROW_71_Right_71
*1294 PHY_EDGE_ROW_72_Left_146
*1295 PHY_EDGE_ROW_72_Right_72
*1296 PHY_EDGE_ROW_73_Left_147
*1297 PHY_EDGE_ROW_73_Right_73
*1298 PHY_EDGE_ROW_7_Left_81
*1299 PHY_EDGE_ROW_7_Right_7
*1300 PHY_EDGE_ROW_8_Left_82
*1301 PHY_EDGE_ROW_8_Right_8
*1302 PHY_EDGE_ROW_9_Left_83
*1303 PHY_EDGE_ROW_9_Right_9
*1304 TAP_TAPCELL_ROW_0_148
*1305 TAP_TAPCELL_ROW_0_149
*1306 TAP_TAPCELL_ROW_0_150
*1307 TAP_TAPCELL_ROW_10_164
*1308 TAP_TAPCELL_ROW_10_165
*1309 TAP_TAPCELL_ROW_11_166
*1310 TAP_TAPCELL_ROW_12_167
*1311 TAP_TAPCELL_ROW_12_168
*1312 TAP_TAPCELL_ROW_13_169
*1313 TAP_TAPCELL_ROW_14_170
*1314 TAP_TAPCELL_ROW_14_171
*1315 TAP_TAPCELL_ROW_15_172
*1316 TAP_TAPCELL_ROW_16_173
*1317 TAP_TAPCELL_ROW_16_174
*1318 TAP_TAPCELL_ROW_17_175
*1319 TAP_TAPCELL_ROW_18_176
*1320 TAP_TAPCELL_ROW_18_177
*1321 TAP_TAPCELL_ROW_19_178
*1322 TAP_TAPCELL_ROW_1_151
*1323 TAP_TAPCELL_ROW_20_179
*1324 TAP_TAPCELL_ROW_20_180
*1325 TAP_TAPCELL_ROW_21_181
*1326 TAP_TAPCELL_ROW_22_182
*1327 TAP_TAPCELL_ROW_22_183
*1328 TAP_TAPCELL_ROW_23_184
*1329 TAP_TAPCELL_ROW_24_185
*1330 TAP_TAPCELL_ROW_24_186
*1331 TAP_TAPCELL_ROW_25_187
*1332 TAP_TAPCELL_ROW_26_188
*1333 TAP_TAPCELL_ROW_26_189
*1334 TAP_TAPCELL_ROW_27_190
*1335 TAP_TAPCELL_ROW_28_191
*1336 TAP_TAPCELL_ROW_28_192
*1337 TAP_TAPCELL_ROW_29_193
*1338 TAP_TAPCELL_ROW_2_152
*1339 TAP_TAPCELL_ROW_2_153
*1340 TAP_TAPCELL_ROW_30_194
*1341 TAP_TAPCELL_ROW_30_195
*1342 TAP_TAPCELL_ROW_31_196
*1343 TAP_TAPCELL_ROW_32_197
*1344 TAP_TAPCELL_ROW_32_198
*1345 TAP_TAPCELL_ROW_33_199
*1346 TAP_TAPCELL_ROW_34_200
*1347 TAP_TAPCELL_ROW_34_201
*1348 TAP_TAPCELL_ROW_35_202
*1349 TAP_TAPCELL_ROW_36_203
*1350 TAP_TAPCELL_ROW_36_204
*1351 TAP_TAPCELL_ROW_37_205
*1352 TAP_TAPCELL_ROW_38_206
*1353 TAP_TAPCELL_ROW_38_207
*1354 TAP_TAPCELL_ROW_39_208
*1355 TAP_TAPCELL_ROW_3_154
*1356 TAP_TAPCELL_ROW_40_209
*1357 TAP_TAPCELL_ROW_40_210
*1358 TAP_TAPCELL_ROW_41_211
*1359 TAP_TAPCELL_ROW_42_212
*1360 TAP_TAPCELL_ROW_42_213
*1361 TAP_TAPCELL_ROW_43_214
*1362 TAP_TAPCELL_ROW_44_215
*1363 TAP_TAPCELL_ROW_44_216
*1364 TAP_TAPCELL_ROW_45_217
*1365 TAP_TAPCELL_ROW_46_218
*1366 TAP_TAPCELL_ROW_46_219
*1367 TAP_TAPCELL_ROW_47_220
*1368 TAP_TAPCELL_ROW_48_221
*1369 TAP_TAPCELL_ROW_48_222
*1370 TAP_TAPCELL_ROW_49_223
*1371 TAP_TAPCELL_ROW_4_155
*1372 TAP_TAPCELL_ROW_4_156
*1373 TAP_TAPCELL_ROW_50_224
*1374 TAP_TAPCELL_ROW_50_225
*1375 TAP_TAPCELL_ROW_51_226