* NGSPICE file created from E_IO.ext - technology: ihp-sg13g2

* Black-box entry subcircuit for sg13g2_buf_2 abstract view
.subckt sg13g2_buf_2 A X VDD VSS
.ends

* Black-box entry subcircuit for sg13g2_decap_8 abstract view
.subckt sg13g2_decap_8 VDD VSS
.ends

* Black-box entry subcircuit for sg13g2_dlhq_1 abstract view
.subckt sg13g2_dlhq_1 D GATE Q VDD VSS
.ends

* Black-box entry subcircuit for sg13g2_mux2_1 abstract view
.subckt sg13g2_mux2_1 A0 A1 S X VDD VSS
.ends

* Black-box entry subcircuit for sg13g2_fill_1 abstract view
.subckt sg13g2_fill_1 VDD VSS
.ends

* Black-box entry subcircuit for sg13g2_mux4_1 abstract view
.subckt sg13g2_mux4_1 S0 A0 A1 A2 A3 S1 X VDD VSS
.ends

* Black-box entry subcircuit for sg13g2_antennanp abstract view
.subckt sg13g2_antennanp VDD VSS A
.ends

* Black-box entry subcircuit for sg13g2_fill_2 abstract view
.subckt sg13g2_fill_2 VDD VSS
.ends

* Black-box entry subcircuit for sg13g2_buf_1 abstract view
.subckt sg13g2_buf_1 A X VDD VSS
.ends

* Black-box entry subcircuit for sg13g2_nor3_1 abstract view
.subckt sg13g2_nor3_1 A B C Y VDD VSS
.ends

* Black-box entry subcircuit for sg13g2_nor2b_1 abstract view
.subckt sg13g2_nor2b_1 A B_N Y VDD VSS
.ends

* Black-box entry subcircuit for sg13g2_decap_4 abstract view
.subckt sg13g2_decap_4 VDD VSS
.ends

* Black-box entry subcircuit for sg13g2_buf_4 abstract view
.subckt sg13g2_buf_4 X A VDD VSS
.ends

* Black-box entry subcircuit for sg13g2_a221oi_1 abstract view
.subckt sg13g2_a221oi_1 VSS VDD B2 C1 B1 A1 Y A2
.ends

* Black-box entry subcircuit for sg13g2_o21ai_1 abstract view
.subckt sg13g2_o21ai_1 B1 VDD Y VSS A1 A2
.ends

* Black-box entry subcircuit for sg13g2_nor2_1 abstract view
.subckt sg13g2_nor2_1 A B Y VDD VSS
.ends

* Black-box entry subcircuit for sg13g2_a21o_1 abstract view
.subckt sg13g2_a21o_1 A2 A1 B1 X VDD VSS
.ends

* Black-box entry subcircuit for sg13g2_a21oi_1 abstract view
.subckt sg13g2_a21oi_1 VSS VDD A1 A2 Y B1
.ends

* Black-box entry subcircuit for sg13g2_nand3_1 abstract view
.subckt sg13g2_nand3_1 B C A Y VDD VSS
.ends

* Black-box entry subcircuit for sg13g2_nand2_1 abstract view
.subckt sg13g2_nand2_1 Y A B VDD VSS
.ends

* Black-box entry subcircuit for sg13g2_inv_1 abstract view
.subckt sg13g2_inv_1 VDD Y A VSS
.ends

* Black-box entry subcircuit for sg13g2_tiehi abstract view
.subckt sg13g2_tiehi VDD VSS L_HI
.ends

* Black-box entry subcircuit for sg13g2_dfrbp_1 abstract view
.subckt sg13g2_dfrbp_1 CLK RESET_B D Q_N Q VDD VSS
.ends

* Black-box entry subcircuit for sg13g2_nand2b_1 abstract view
.subckt sg13g2_nand2b_1 Y B A_N VDD VSS
.ends

* Black-box entry subcircuit for sg13g2_nand2b_2 abstract view
.subckt sg13g2_nand2b_2 Y B VDD VSS A_N
.ends

* Black-box entry subcircuit for sg13g2_a22oi_1 abstract view
.subckt sg13g2_a22oi_1 Y B1 B2 A2 A1 VDD VSS
.ends

.subckt E_IO A_I_top A_O_top A_T_top A_config_C_bit0 A_config_C_bit1 A_config_C_bit2
+ A_config_C_bit3 B_I_top B_O_top B_T_top B_config_C_bit0 B_config_C_bit1 B_config_C_bit2
+ B_config_C_bit3 E1END[0] E1END[1] E1END[2] E1END[3] E2END[0] E2END[1] E2END[2] E2END[3]
+ E2END[4] E2END[5] E2END[6] E2END[7] E2MID[0] E2MID[1] E2MID[2] E2MID[3] E2MID[4]
+ E2MID[5] E2MID[6] E2MID[7] E6END[0] E6END[10] E6END[11] E6END[1] E6END[2] E6END[3]
+ E6END[4] E6END[5] E6END[6] E6END[7] E6END[8] E6END[9] EE4END[0] EE4END[10] EE4END[11]
+ EE4END[12] EE4END[13] EE4END[14] EE4END[15] EE4END[1] EE4END[2] EE4END[3] EE4END[4]
+ EE4END[5] EE4END[6] EE4END[7] EE4END[8] EE4END[9] FrameData[0] FrameData[10] FrameData[11]
+ FrameData[12] FrameData[13] FrameData[14] FrameData[15] FrameData[16] FrameData[17]
+ FrameData[18] FrameData[19] FrameData[1] FrameData[20] FrameData[21] FrameData[22]
+ FrameData[23] FrameData[24] FrameData[25] FrameData[26] FrameData[27] FrameData[28]
+ FrameData[29] FrameData[2] FrameData[30] FrameData[31] FrameData[3] FrameData[4]
+ FrameData[5] FrameData[6] FrameData[7] FrameData[8] FrameData[9] FrameData_O[0]
+ FrameData_O[10] FrameData_O[11] FrameData_O[12] FrameData_O[13] FrameData_O[14]
+ FrameData_O[15] FrameData_O[16] FrameData_O[17] FrameData_O[18] FrameData_O[19]
+ FrameData_O[1] FrameData_O[20] FrameData_O[21] FrameData_O[22] FrameData_O[23] FrameData_O[24]
+ FrameData_O[25] FrameData_O[26] FrameData_O[27] FrameData_O[28] FrameData_O[29]
+ FrameData_O[2] FrameData_O[30] FrameData_O[31] FrameData_O[3] FrameData_O[4] FrameData_O[5]
+ FrameData_O[6] FrameData_O[7] FrameData_O[8] FrameData_O[9] FrameStrobe[0] FrameStrobe[10]
+ FrameStrobe[11] FrameStrobe[12] FrameStrobe[13] FrameStrobe[14] FrameStrobe[15]
+ FrameStrobe[16] FrameStrobe[17] FrameStrobe[18] FrameStrobe[19] FrameStrobe[1] FrameStrobe[2]
+ FrameStrobe[3] FrameStrobe[4] FrameStrobe[5] FrameStrobe[6] FrameStrobe[7] FrameStrobe[8]
+ FrameStrobe[9] FrameStrobe_O[0] FrameStrobe_O[10] FrameStrobe_O[11] FrameStrobe_O[12]
+ FrameStrobe_O[13] FrameStrobe_O[14] FrameStrobe_O[15] FrameStrobe_O[16] FrameStrobe_O[17]
+ FrameStrobe_O[18] FrameStrobe_O[19] FrameStrobe_O[1] FrameStrobe_O[2] FrameStrobe_O[3]
+ FrameStrobe_O[4] FrameStrobe_O[5] FrameStrobe_O[6] FrameStrobe_O[7] FrameStrobe_O[8]
+ FrameStrobe_O[9] UserCLK UserCLKo VGND VPWR W1BEG[0] W1BEG[1] W1BEG[2] W1BEG[3]
+ W2BEG[0] W2BEG[1] W2BEG[2] W2BEG[3] W2BEG[4] W2BEG[5] W2BEG[6] W2BEG[7] W2BEGb[0]
+ W2BEGb[1] W2BEGb[2] W2BEGb[3] W2BEGb[4] W2BEGb[5] W2BEGb[6] W2BEGb[7] W6BEG[0] W6BEG[10]
+ W6BEG[11] W6BEG[1] W6BEG[2] W6BEG[3] W6BEG[4] W6BEG[5] W6BEG[6] W6BEG[7] W6BEG[8]
+ W6BEG[9] WW4BEG[0] WW4BEG[10] WW4BEG[11] WW4BEG[12] WW4BEG[13] WW4BEG[14] WW4BEG[15]
+ WW4BEG[1] WW4BEG[2] WW4BEG[3] WW4BEG[4] WW4BEG[5] WW4BEG[6] WW4BEG[7] WW4BEG[8]
+ WW4BEG[9]
X_363_ Inst_E_IO_switch_matrix.WW4BEG8 net213 VPWR VGND sg13g2_buf_2
XFILLER_3_67 VPWR VGND sg13g2_decap_8
X_294_ net86 net130 VPWR VGND sg13g2_buf_2
X_346_ Inst_E_IO_switch_matrix.W6BEG3 net192 VPWR VGND sg13g2_buf_2
X_277_ net99 net143 VPWR VGND sg13g2_buf_2
X_200_ net90 net66 Inst_E_IO_ConfigMem.Inst_frame2_bit28.Q VPWR VGND sg13g2_dlhq_1
X_062_ net13 net14 Inst_E_IO_ConfigMem.Inst_frame0_bit25.Q _009_ VPWR VGND sg13g2_mux2_1
X_131_ net3 Inst_B_IO_1_bidirectional_frame_config_pass.Q Inst_E_IO_ConfigMem.Inst_frame3_bit25.Q
+ Inst_E_IO_switch_matrix.W1BEG3 VPWR VGND sg13g2_mux2_1
X_329_ Inst_E_IO_switch_matrix.W2BEG2 net173 VPWR VGND sg13g2_buf_2
XFILLER_9_77 VPWR VGND sg13g2_fill_1
X_114_ Inst_E_IO_ConfigMem.Inst_frame2_bit27.Q net23 net29 net27 net1 Inst_E_IO_ConfigMem.Inst_frame2_bit26.Q
+ Inst_E_IO_switch_matrix.WW4BEG0 VPWR VGND sg13g2_mux4_1
XFILLER_55_29 VPWR VGND sg13g2_fill_1
XANTENNA_5 VPWR VGND FrameStrobe[14] sg13g2_antennanp
XFILLER_15_98 VPWR VGND sg13g2_fill_1
XFILLER_56_50 VPWR VGND sg13g2_fill_2
Xoutput97 net116 FrameData_O[11] VPWR VGND sg13g2_buf_1
Xoutput86 net105 A_config_C_bit1 VPWR VGND sg13g2_buf_1
XFILLER_3_46 VPWR VGND sg13g2_fill_1
X_293_ net85 net129 VPWR VGND sg13g2_buf_2
X_362_ Inst_E_IO_switch_matrix.WW4BEG7 net212 VPWR VGND sg13g2_buf_1
X_345_ Inst_E_IO_switch_matrix.W6BEG2 net191 VPWR VGND sg13g2_buf_2
X_276_ net98 net142 VPWR VGND sg13g2_buf_2
X_130_ Inst_E_IO_ConfigMem.Inst_frame3_bit26.Q net22 net48 net41 net32 Inst_E_IO_ConfigMem.Inst_frame3_bit27.Q
+ Inst_E_IO_switch_matrix.W2BEG0 VPWR VGND sg13g2_mux4_1
X_328_ Inst_E_IO_switch_matrix.W2BEG1 net172 VPWR VGND sg13g2_buf_2
X_061_ Inst_E_IO_ConfigMem.Inst_frame0_bit26.Q _006_ _007_ _008_ VPWR VGND sg13g2_nor3_1
X_259_ net85 net73 Inst_E_IO_ConfigMem.Inst_frame0_bit23.Q VPWR VGND sg13g2_dlhq_1
X_113_ Inst_E_IO_ConfigMem.Inst_frame2_bit29.Q net31 net24 net33 net2 Inst_E_IO_ConfigMem.Inst_frame2_bit28.Q
+ Inst_E_IO_switch_matrix.WW4BEG1 VPWR VGND sg13g2_mux4_1
XFILLER_34_97 VPWR VGND sg13g2_fill_2
XFILLER_29_97 VPWR VGND sg13g2_fill_2
XANTENNA_6 VPWR VGND FrameStrobe[16] sg13g2_antennanp
Xoutput98 net117 FrameData_O[12] VPWR VGND sg13g2_buf_1
Xoutput87 net106 A_config_C_bit2 VPWR VGND sg13g2_buf_1
X_292_ net84 net128 VPWR VGND sg13g2_buf_2
X_361_ Inst_E_IO_switch_matrix.WW4BEG6 net211 VPWR VGND sg13g2_buf_1
XFILLER_53_52 VPWR VGND sg13g2_fill_2
X_344_ Inst_E_IO_switch_matrix.W6BEG1 net190 VPWR VGND sg13g2_buf_2
X_275_ net97 net141 VPWR VGND sg13g2_buf_1
X_060_ net12 Inst_E_IO_ConfigMem.Inst_frame0_bit25.Q _007_ VPWR VGND sg13g2_nor2b_1
XFILLER_3_3 VPWR VGND sg13g2_fill_2
XFILLER_0_59 VPWR VGND sg13g2_decap_8
X_189_ net78 net63 Inst_E_IO_ConfigMem.Inst_frame2_bit17.Q VPWR VGND sg13g2_dlhq_1
X_327_ Inst_E_IO_switch_matrix.W2BEG0 net171 VPWR VGND sg13g2_buf_2
XFILLER_9_46 VPWR VGND sg13g2_fill_2
X_258_ net84 net74 Inst_E_IO_ConfigMem.Inst_frame0_bit22.Q VPWR VGND sg13g2_dlhq_1
X_112_ Inst_E_IO_ConfigMem.Inst_frame2_bit31.Q net26 net30 net28 Inst_A_IO_1_bidirectional_frame_config_pass.Q
+ Inst_E_IO_ConfigMem.Inst_frame2_bit30.Q Inst_E_IO_switch_matrix.WW4BEG2 VPWR VGND
+ sg13g2_mux4_1
XFILLER_18_44 VPWR VGND sg13g2_decap_8
XANTENNA_7 VPWR VGND FrameStrobe[18] sg13g2_antennanp
Xoutput99 net118 FrameData_O[13] VPWR VGND sg13g2_buf_1
Xoutput88 net107 A_config_C_bit3 VPWR VGND sg13g2_buf_1
X_291_ net83 net127 VPWR VGND sg13g2_buf_1
X_360_ Inst_E_IO_switch_matrix.WW4BEG5 net210 VPWR VGND sg13g2_buf_1
XFILLER_26_55 VPWR VGND sg13g2_fill_2
XFILLER_42_98 VPWR VGND sg13g2_fill_1
XFILLER_37_76 VPWR VGND sg13g2_fill_2
X_343_ Inst_E_IO_switch_matrix.W6BEG0 net187 VPWR VGND sg13g2_buf_2
X_274_ net96 net140 VPWR VGND sg13g2_buf_1
XFILLER_4_91 VPWR VGND sg13g2_decap_8
X_188_ net58 net63 Inst_E_IO_ConfigMem.Inst_frame2_bit16.Q VPWR VGND sg13g2_dlhq_1
X_257_ net83 net73 Inst_E_IO_ConfigMem.Inst_frame0_bit21.Q VPWR VGND sg13g2_dlhq_1
X_326_ Inst_E_IO_switch_matrix.W1BEG3 net170 VPWR VGND sg13g2_buf_1
XFILLER_9_58 VPWR VGND sg13g2_fill_2
X_309_ FrameStrobe[7] net163 VPWR VGND sg13g2_buf_1
X_111_ Inst_E_IO_ConfigMem.Inst_frame1_bit1.Q net32 net25 net34 Inst_B_IO_1_bidirectional_frame_config_pass.Q
+ Inst_E_IO_ConfigMem.Inst_frame1_bit0.Q Inst_E_IO_switch_matrix.WW4BEG3 VPWR VGND
+ sg13g2_mux4_1
XFILLER_1_92 VPWR VGND sg13g2_fill_2
XANTENNA_8 VPWR VGND FrameStrobe[19] sg13g2_antennanp
XFILLER_20_57 VPWR VGND sg13g2_fill_2
XFILLER_31_67 VPWR VGND sg13g2_fill_2
Xoutput89 net108 B_I_top VPWR VGND sg13g2_buf_1
XFILLER_15_57 VPWR VGND sg13g2_fill_2
XFILLER_3_27 VPWR VGND sg13g2_fill_2
X_290_ net82 net126 VPWR VGND sg13g2_buf_2
X_342_ Inst_E_IO_switch_matrix.W2BEGb7 net186 VPWR VGND sg13g2_buf_1
X_273_ net95 net139 VPWR VGND sg13g2_buf_1
X_187_ net57 net65 Inst_E_IO_ConfigMem.Inst_frame2_bit15.Q VPWR VGND sg13g2_dlhq_1
X_256_ net82 net73 Inst_E_IO_ConfigMem.Inst_frame0_bit20.Q VPWR VGND sg13g2_dlhq_1
X_325_ Inst_E_IO_switch_matrix.W1BEG2 net169 VPWR VGND sg13g2_buf_1
XFILLER_18_68 VPWR VGND sg13g2_decap_4
X_110_ Inst_E_IO_ConfigMem.Inst_frame1_bit2.Q net7 net9 net11 net13 Inst_E_IO_ConfigMem.Inst_frame1_bit3.Q
+ Inst_E_IO_switch_matrix.WW4BEG4 VPWR VGND sg13g2_mux4_1
X_308_ FrameStrobe[6] net162 VPWR VGND sg13g2_buf_1
XFILLER_1_71 VPWR VGND sg13g2_decap_8
X_239_ net95 net74 Inst_E_IO_ConfigMem.Inst_frame0_bit3.Q VPWR VGND sg13g2_dlhq_1
XANTENNA_9 VPWR VGND FrameStrobe[3] sg13g2_antennanp
XFILLER_16_90 VPWR VGND sg13g2_fill_1
X_341_ Inst_E_IO_switch_matrix.W2BEGb6 net185 VPWR VGND sg13g2_buf_1
X_272_ net92 net136 VPWR VGND sg13g2_buf_1
Xfanout70 net71 net70 VPWR VGND sg13g2_buf_1
XFILLER_48_77 VPWR VGND sg13g2_fill_2
X_186_ net56 net65 Inst_E_IO_ConfigMem.Inst_frame2_bit14.Q VPWR VGND sg13g2_dlhq_1
X_255_ net80 net73 Inst_E_IO_ConfigMem.Inst_frame0_bit19.Q VPWR VGND sg13g2_dlhq_1
X_324_ Inst_E_IO_switch_matrix.W1BEG1 net168 VPWR VGND sg13g2_buf_1
XFILLER_50_67 VPWR VGND sg13g2_fill_2
X_307_ FrameStrobe[5] net161 VPWR VGND sg13g2_buf_1
X_169_ net91 net61 Inst_E_IO_ConfigMem.Inst_frame3_bit29.Q VPWR VGND sg13g2_dlhq_1
XFILLER_1_94 VPWR VGND sg13g2_fill_1
X_238_ net92 net74 Inst_E_IO_ConfigMem.Inst_frame0_bit2.Q VPWR VGND sg13g2_dlhq_1
XFILLER_7_93 VPWR VGND sg13g2_fill_2
XFILLER_42_68 VPWR VGND sg13g2_fill_1
X_340_ Inst_E_IO_switch_matrix.W2BEGb5 net184 VPWR VGND sg13g2_buf_1
X_185_ net55 net65 Inst_E_IO_ConfigMem.Inst_frame2_bit13.Q VPWR VGND sg13g2_dlhq_1
Xfanout60 net61 net60 VPWR VGND sg13g2_buf_2
Xfanout71 FrameStrobe[1] net71 VPWR VGND sg13g2_buf_2
X_254_ net79 net73 Inst_E_IO_ConfigMem.Inst_frame0_bit18.Q VPWR VGND sg13g2_dlhq_1
XFILLER_9_28 VPWR VGND sg13g2_fill_1
X_323_ Inst_E_IO_switch_matrix.W1BEG0 net167 VPWR VGND sg13g2_buf_1
X_306_ FrameStrobe[4] net160 VPWR VGND sg13g2_buf_1
X_168_ net90 net61 Inst_E_IO_ConfigMem.Inst_frame3_bit28.Q VPWR VGND sg13g2_dlhq_1
X_237_ net81 net76 Inst_E_IO_ConfigMem.Inst_frame0_bit1.Q VPWR VGND sg13g2_dlhq_1
X_099_ Inst_E_IO_ConfigMem.Inst_frame1_bit25.Q net16 net20 net18 net22 Inst_E_IO_ConfigMem.Inst_frame1_bit24.Q
+ Inst_E_IO_switch_matrix.WW4BEG15 VPWR VGND sg13g2_mux4_1
XFILLER_56_89 VPWR VGND sg13g2_fill_2
XFILLER_56_23 VPWR VGND sg13g2_fill_2
XFILLER_31_48 VPWR VGND sg13g2_fill_2
XFILLER_21_92 VPWR VGND sg13g2_fill_2
XFILLER_4_84 VPWR VGND sg13g2_decap_8
X_322_ UserCLK net166 VPWR VGND sg13g2_buf_1
Xfanout61 FrameStrobe[3] net61 VPWR VGND sg13g2_buf_2
X_184_ net54 net65 Inst_E_IO_ConfigMem.Inst_frame2_bit12.Q VPWR VGND sg13g2_dlhq_1
X_253_ net78 net72 Inst_E_IO_ConfigMem.Inst_frame0_bit17.Q VPWR VGND sg13g2_dlhq_1
Xfanout72 net74 net72 VPWR VGND sg13g2_buf_2
X_305_ net61 net159 VPWR VGND sg13g2_buf_1
X_236_ net51 net76 Inst_E_IO_ConfigMem.Inst_frame0_bit0.Q VPWR VGND sg13g2_dlhq_1
X_167_ net89 net61 Inst_E_IO_ConfigMem.Inst_frame3_bit27.Q VPWR VGND sg13g2_dlhq_1
X_098_ Inst_E_IO_ConfigMem.Inst_frame1_bit26.Q net5 net37 net25 net1 Inst_E_IO_ConfigMem.Inst_frame1_bit27.Q
+ Inst_E_IO_switch_matrix.W6BEG0 VPWR VGND sg13g2_mux4_1
XFILLER_1_85 VPWR VGND sg13g2_decap_8
X_219_ net57 net67 Inst_E_IO_ConfigMem.Inst_frame1_bit15.Q VPWR VGND sg13g2_dlhq_1
XFILLER_56_79 VPWR VGND sg13g2_fill_2
XFILLER_23_39 VPWR VGND sg13g2_fill_2
X_321_ FrameStrobe[19] net156 VPWR VGND sg13g2_buf_1
X_183_ net53 net65 Inst_E_IO_ConfigMem.Inst_frame2_bit11.Q VPWR VGND sg13g2_dlhq_1
X_252_ net58 net72 Inst_E_IO_ConfigMem.Inst_frame0_bit16.Q VPWR VGND sg13g2_dlhq_1
Xfanout62 net64 net62 VPWR VGND sg13g2_buf_2
Xfanout73 net74 net73 VPWR VGND sg13g2_buf_2
X_304_ net66 net158 VPWR VGND sg13g2_buf_1
X_235_ net94 net71 Inst_E_IO_ConfigMem.Inst_frame1_bit31.Q VPWR VGND sg13g2_dlhq_1
X_097_ Inst_E_IO_ConfigMem.Inst_frame1_bit28.Q net6 net36 net24 net2 Inst_E_IO_ConfigMem.Inst_frame1_bit29.Q
+ Inst_E_IO_switch_matrix.W6BEG1 VPWR VGND sg13g2_mux4_1
X_166_ net88 net61 Inst_E_IO_ConfigMem.Inst_frame3_bit26.Q VPWR VGND sg13g2_dlhq_1
XFILLER_1_64 VPWR VGND sg13g2_decap_8
XFILLER_1_31 VPWR VGND sg13g2_fill_2
X_149_ Inst_E_IO_ConfigMem.Inst_frame0_bit30.Q net22 _045_ VPWR VGND sg13g2_nor2b_1
X_218_ net56 net67 Inst_E_IO_ConfigMem.Inst_frame1_bit14.Q VPWR VGND sg13g2_dlhq_1
XFILLER_31_17 VPWR VGND sg13g2_fill_1
XANTENNA_90 VPWR VGND FrameStrobe[14] sg13g2_antennanp
XFILLER_11_8 VPWR VGND sg13g2_fill_2
XFILLER_21_94 VPWR VGND sg13g2_fill_1
XFILLER_7_30 VPWR VGND sg13g2_fill_2
XFILLER_16_61 VPWR VGND sg13g2_fill_2
XFILLER_4_31 VPWR VGND sg13g2_fill_1
XFILLER_48_48 VPWR VGND sg13g2_fill_1
X_320_ FrameStrobe[18] net155 VPWR VGND sg13g2_buf_1
XFILLER_48_59 VPWR VGND sg13g2_fill_1
X_182_ net52 net65 Inst_E_IO_ConfigMem.Inst_frame2_bit10.Q VPWR VGND sg13g2_dlhq_1
Xfanout74 FrameStrobe[0] net74 VPWR VGND sg13g2_buf_2
X_251_ net57 net72 Inst_E_IO_ConfigMem.Inst_frame0_bit15.Q VPWR VGND sg13g2_dlhq_1
XFILLER_13_51 VPWR VGND sg13g2_fill_1
Xfanout63 net63 net64 VPWR VGND sg13g2_buf_4
XFILLER_1_7 VPWR VGND sg13g2_fill_1
X_303_ net70 net157 VPWR VGND sg13g2_buf_1
X_234_ net93 net71 Inst_E_IO_ConfigMem.Inst_frame1_bit30.Q VPWR VGND sg13g2_dlhq_1
X_096_ Inst_E_IO_ConfigMem.Inst_frame1_bit30.Q net48 net41 net32 net1 Inst_E_IO_ConfigMem.Inst_frame1_bit31.Q
+ Inst_E_IO_switch_matrix.W6BEG2 VPWR VGND sg13g2_mux4_1
X_165_ net87 net59 Inst_E_IO_ConfigMem.Inst_frame3_bit25.Q VPWR VGND sg13g2_dlhq_1
X_217_ net55 net69 Inst_E_IO_ConfigMem.Inst_frame1_bit13.Q VPWR VGND sg13g2_dlhq_1
X_148_ VGND VPWR net12 Inst_E_IO_ConfigMem.Inst_frame0_bit29.Q _043_ _003_ _044_ _042_
+ sg13g2_a221oi_1
XFILLER_10_96 VPWR VGND sg13g2_fill_2
XFILLER_19_61 VPWR VGND sg13g2_decap_8
X_079_ Inst_E_IO_ConfigMem.Inst_frame0_bit21.Q VPWR _025_ VGND _022_ _024_ sg13g2_o21ai_1
XFILLER_56_37 VPWR VGND sg13g2_fill_1
XANTENNA_91 VPWR VGND FrameStrobe[16] sg13g2_antennanp
XANTENNA_80 VPWR VGND FrameStrobe[7] sg13g2_antennanp
XFILLER_37_17 VPWR VGND sg13g2_fill_1
XFILLER_4_98 VPWR VGND sg13g2_fill_1
Xfanout64 FrameStrobe[2] net64 VPWR VGND sg13g2_buf_2
Xfanout75 net76 net75 VPWR VGND sg13g2_buf_2
X_250_ net56 net72 Inst_E_IO_ConfigMem.Inst_frame0_bit14.Q VPWR VGND sg13g2_dlhq_1
X_181_ net101 net62 Inst_E_IO_ConfigMem.Inst_frame2_bit9.Q VPWR VGND sg13g2_dlhq_1
X_233_ net91 net70 Inst_E_IO_ConfigMem.Inst_frame1_bit29.Q VPWR VGND sg13g2_dlhq_1
X_095_ Inst_E_IO_ConfigMem.Inst_frame0_bit0.Q net47 net40 net31 net2 Inst_E_IO_ConfigMem.Inst_frame0_bit1.Q
+ Inst_E_IO_switch_matrix.W6BEG3 VPWR VGND sg13g2_mux4_1
X_302_ net77 net146 VPWR VGND sg13g2_buf_1
X_164_ net86 net59 Inst_E_IO_ConfigMem.Inst_frame3_bit24.Q VPWR VGND sg13g2_dlhq_1
X_216_ net54 net69 Inst_E_IO_ConfigMem.Inst_frame1_bit12.Q VPWR VGND sg13g2_dlhq_1
X_147_ Inst_E_IO_ConfigMem.Inst_frame0_bit30.Q _003_ _043_ VPWR VGND sg13g2_nor2_1
XFILLER_32_5 VPWR VGND sg13g2_fill_1
X_078_ _023_ Inst_E_IO_ConfigMem.Inst_frame0_bit19.Q _002_ _024_ VPWR VGND sg13g2_a21o_1
XANTENNA_92 VPWR VGND FrameStrobe[18] sg13g2_antennanp
XANTENNA_81 VPWR VGND FrameStrobe[8] sg13g2_antennanp
XANTENNA_70 VPWR VGND FrameStrobe[10] sg13g2_antennanp
XFILLER_4_77 VPWR VGND sg13g2_decap_8
Xfanout65 FrameStrobe[2] net65 VPWR VGND sg13g2_buf_2
Xfanout76 net77 net76 VPWR VGND sg13g2_buf_2
X_180_ net100 net62 Inst_E_IO_ConfigMem.Inst_frame2_bit8.Q VPWR VGND sg13g2_dlhq_1
X_232_ net90 net70 Inst_E_IO_ConfigMem.Inst_frame1_bit28.Q VPWR VGND sg13g2_dlhq_1
X_301_ net94 net138 VPWR VGND sg13g2_buf_2
X_163_ net85 net59 Inst_E_IO_ConfigMem.Inst_frame3_bit23.Q VPWR VGND sg13g2_dlhq_1
X_094_ Inst_E_IO_ConfigMem.Inst_frame0_bit2.Q net5 net44 net28 net1 Inst_E_IO_ConfigMem.Inst_frame0_bit3.Q
+ Inst_E_IO_switch_matrix.W6BEG4 VPWR VGND sg13g2_mux4_1
XFILLER_46_0 VPWR VGND sg13g2_fill_1
XFILLER_1_78 VPWR VGND sg13g2_decap_8
XFILLER_10_98 VPWR VGND sg13g2_fill_1
X_215_ net53 net69 Inst_E_IO_ConfigMem.Inst_frame1_bit11.Q VPWR VGND sg13g2_dlhq_1
X_146_ VGND VPWR _001_ Inst_E_IO_ConfigMem.Inst_frame0_bit30.Q _042_ _041_ sg13g2_a21oi_1
X_077_ net13 net14 Inst_E_IO_ConfigMem.Inst_frame0_bit18.Q _023_ VPWR VGND sg13g2_mux2_1
XFILLER_25_5 VPWR VGND sg13g2_fill_1
XFILLER_46_83 VPWR VGND sg13g2_fill_1
XFILLER_46_61 VPWR VGND sg13g2_fill_1
XANTENNA_60 VPWR VGND FrameStrobe[3] sg13g2_antennanp
XANTENNA_82 VPWR VGND FrameStrobe[9] sg13g2_antennanp
XANTENNA_93 VPWR VGND FrameStrobe[19] sg13g2_antennanp
XANTENNA_71 VPWR VGND FrameStrobe[11] sg13g2_antennanp
XFILLER_21_64 VPWR VGND sg13g2_fill_2
X_129_ Inst_E_IO_ConfigMem.Inst_frame3_bit28.Q net21 net47 net40 net31 Inst_E_IO_ConfigMem.Inst_frame3_bit29.Q
+ Inst_E_IO_switch_matrix.W2BEG1 VPWR VGND sg13g2_mux4_1
Xinput80 net99 FrameData[7] VPWR VGND sg13g2_buf_4
XFILLER_16_42 VPWR VGND sg13g2_fill_2
XFILLER_57_93 VPWR VGND sg13g2_fill_2
XFILLER_57_8 VPWR VGND sg13g2_fill_2
XFILLER_27_74 VPWR VGND sg13g2_fill_1
XFILLER_4_12 VPWR VGND sg13g2_fill_2
XFILLER_48_29 VPWR VGND sg13g2_fill_2
Xfanout66 FrameStrobe[2] net66 VPWR VGND sg13g2_buf_2
Xfanout77 FrameStrobe[0] net77 VPWR VGND sg13g2_buf_2
XFILLER_50_19 VPWR VGND sg13g2_fill_1
X_300_ net93 net137 VPWR VGND sg13g2_buf_2
X_231_ net89 net71 Inst_E_IO_ConfigMem.Inst_frame1_bit27.Q VPWR VGND sg13g2_dlhq_1
XFILLER_24_97 VPWR VGND sg13g2_fill_2
XFILLER_6_0 VPWR VGND sg13g2_fill_2
X_162_ net84 net59 Inst_E_IO_ConfigMem.Inst_frame3_bit22.Q VPWR VGND sg13g2_dlhq_1
X_093_ Inst_E_IO_ConfigMem.Inst_frame0_bit4.Q net6 net43 net27 net2 Inst_E_IO_ConfigMem.Inst_frame0_bit5.Q
+ Inst_E_IO_switch_matrix.W6BEG5 VPWR VGND sg13g2_mux4_1
XANTENNA_150 VPWR VGND FrameStrobe[6] sg13g2_antennanp
XFILLER_1_57 VPWR VGND sg13g2_decap_8
XFILLER_1_24 VPWR VGND sg13g2_fill_1
Xinput1 net1 A_O_top VPWR VGND sg13g2_buf_4
XFILLER_19_42 VPWR VGND sg13g2_fill_2
X_214_ net52 net69 Inst_E_IO_ConfigMem.Inst_frame1_bit10.Q VPWR VGND sg13g2_dlhq_1
X_145_ net21 Inst_E_IO_ConfigMem.Inst_frame0_bit30.Q _041_ VPWR VGND sg13g2_nor2_1
XFILLER_19_97 VPWR VGND sg13g2_fill_2
X_076_ Inst_E_IO_ConfigMem.Inst_frame0_bit19.Q _020_ _021_ _022_ VPWR VGND sg13g2_nor3_1
XANTENNA_72 VPWR VGND FrameStrobe[12] sg13g2_antennanp
XANTENNA_61 VPWR VGND FrameStrobe[4] sg13g2_antennanp
XANTENNA_94 VPWR VGND FrameStrobe[3] sg13g2_antennanp
XANTENNA_50 VPWR VGND net180 sg13g2_antennanp
XANTENNA_83 VPWR VGND net174 sg13g2_antennanp
Xoutput190 net209 WW4BEG[4] VPWR VGND sg13g2_buf_1
X_128_ Inst_E_IO_ConfigMem.Inst_frame3_bit30.Q net20 net46 net39 net30 Inst_E_IO_ConfigMem.Inst_frame3_bit31.Q
+ Inst_E_IO_switch_matrix.W2BEG2 VPWR VGND sg13g2_mux4_1
X_059_ Inst_E_IO_ConfigMem.Inst_frame0_bit25.Q net11 _006_ VPWR VGND sg13g2_nor2_1
Xinput70 FrameData[27] net89 VPWR VGND sg13g2_buf_2
Xinput81 FrameData[8] net100 VPWR VGND sg13g2_buf_2
XFILLER_16_54 VPWR VGND sg13g2_decap_8
XFILLER_54_84 VPWR VGND sg13g2_fill_1
XFILLER_54_73 VPWR VGND sg13g2_fill_2
Xfanout67 FrameStrobe[1] net67 VPWR VGND sg13g2_buf_2
X_161_ net83 net60 net113 VPWR VGND sg13g2_dlhq_1
X_230_ net88 net71 Inst_E_IO_ConfigMem.Inst_frame1_bit26.Q VPWR VGND sg13g2_dlhq_1
XANTENNA_140 VPWR VGND FrameStrobe[9] sg13g2_antennanp
XANTENNA_151 VPWR VGND FrameStrobe[9] sg13g2_antennanp
X_092_ Inst_E_IO_ConfigMem.Inst_frame0_bit6.Q net4 net50 net34 Inst_A_IO_1_bidirectional_frame_config_pass.Q
+ Inst_E_IO_ConfigMem.Inst_frame0_bit7.Q Inst_E_IO_switch_matrix.W6BEG6 VPWR VGND
+ sg13g2_mux4_1
X_359_ Inst_E_IO_switch_matrix.WW4BEG4 net209 VPWR VGND sg13g2_buf_1
Xinput2 net2 B_O_top VPWR VGND sg13g2_buf_4
X_075_ net12 Inst_E_IO_ConfigMem.Inst_frame0_bit18.Q _021_ VPWR VGND sg13g2_nor2b_1
X_213_ net101 net67 Inst_E_IO_ConfigMem.Inst_frame1_bit9.Q VPWR VGND sg13g2_dlhq_1
X_144_ _036_ VPWR net103 VGND _037_ _040_ sg13g2_o21ai_1
XANTENNA_95 VPWR VGND FrameStrobe[4] sg13g2_antennanp
XANTENNA_40 VPWR VGND FrameStrobe[16] sg13g2_antennanp
XANTENNA_62 VPWR VGND FrameStrobe[6] sg13g2_antennanp
XANTENNA_73 VPWR VGND FrameStrobe[14] sg13g2_antennanp
XANTENNA_84 VPWR VGND net180 sg13g2_antennanp
Xoutput191 net210 WW4BEG[5] VPWR VGND sg13g2_buf_1
XANTENNA_51 VPWR VGND net182 sg13g2_antennanp
Xoutput180 net199 WW4BEG[0] VPWR VGND sg13g2_buf_1
XFILLER_21_66 VPWR VGND sg13g2_fill_1
X_127_ Inst_E_IO_ConfigMem.Inst_frame2_bit0.Q net19 net45 net38 net29 Inst_E_IO_ConfigMem.Inst_frame2_bit1.Q
+ Inst_E_IO_switch_matrix.W2BEG3 VPWR VGND sg13g2_mux4_1
X_058_ Inst_E_IO_ConfigMem.Inst_frame0_bit27.Q _004_ _005_ VPWR VGND sg13g2_nor2_1
XFILLER_7_68 VPWR VGND sg13g2_decap_4
Xinput71 FrameData[28] net90 VPWR VGND sg13g2_buf_1
Xinput60 FrameData[18] net79 VPWR VGND sg13g2_buf_2
Xinput82 FrameData[9] net101 VPWR VGND sg13g2_buf_2
XFILLER_16_44 VPWR VGND sg13g2_fill_1
XFILLER_38_97 VPWR VGND sg13g2_fill_2
XFILLER_38_86 VPWR VGND sg13g2_fill_2
Xfanout68 FrameStrobe[1] net68 VPWR VGND sg13g2_buf_2
X_358_ Inst_E_IO_switch_matrix.WW4BEG3 net208 VPWR VGND sg13g2_buf_2
XANTENNA_130 VPWR VGND net180 sg13g2_antennanp
XANTENNA_141 VPWR VGND net174 sg13g2_antennanp
XANTENNA_152 VPWR VGND net174 sg13g2_antennanp
X_091_ Inst_E_IO_ConfigMem.Inst_frame0_bit8.Q net3 net49 net33 Inst_B_IO_1_bidirectional_frame_config_pass.Q
+ Inst_E_IO_ConfigMem.Inst_frame0_bit9.Q Inst_E_IO_switch_matrix.W6BEG7 VPWR VGND
+ sg13g2_mux4_1
X_160_ net82 net59 net112 VPWR VGND sg13g2_dlhq_1
X_289_ net80 net124 VPWR VGND sg13g2_buf_2
Xinput3 E1END[0] net3 VPWR VGND sg13g2_buf_1
XFILLER_35_65 VPWR VGND sg13g2_fill_1
X_074_ net11 Inst_E_IO_ConfigMem.Inst_frame0_bit18.Q _020_ VPWR VGND sg13g2_nor2_1
XFILLER_10_46 VPWR VGND sg13g2_fill_2
X_212_ net100 net67 Inst_E_IO_ConfigMem.Inst_frame1_bit8.Q VPWR VGND sg13g2_dlhq_1
X_143_ _038_ _039_ Inst_E_IO_ConfigMem.Inst_frame0_bit22.Q _040_ VPWR VGND sg13g2_nand3_1
XANTENNA_30 VPWR VGND FrameStrobe[8] sg13g2_antennanp
XANTENNA_41 VPWR VGND FrameStrobe[18] sg13g2_antennanp
XANTENNA_63 VPWR VGND FrameStrobe[7] sg13g2_antennanp
XANTENNA_74 VPWR VGND FrameStrobe[16] sg13g2_antennanp
XANTENNA_96 VPWR VGND FrameStrobe[6] sg13g2_antennanp
XANTENNA_52 VPWR VGND net206 sg13g2_antennanp
XANTENNA_85 VPWR VGND net182 sg13g2_antennanp
Xoutput192 net211 WW4BEG[6] VPWR VGND sg13g2_buf_1
Xoutput181 net200 WW4BEG[10] VPWR VGND sg13g2_buf_1
Xoutput170 net189 W6BEG[11] VPWR VGND sg13g2_buf_1
X_057_ Inst_E_IO_ConfigMem.Inst_frame0_bit25.Q net7 net8 net9 net10 Inst_E_IO_ConfigMem.Inst_frame0_bit26.Q
+ _004_ VPWR VGND sg13g2_mux4_1
X_126_ Inst_E_IO_ConfigMem.Inst_frame2_bit2.Q net18 net44 net37 net28 Inst_E_IO_ConfigMem.Inst_frame2_bit3.Q
+ Inst_E_IO_switch_matrix.W2BEG4 VPWR VGND sg13g2_mux4_1
Xinput72 FrameData[29] net91 VPWR VGND sg13g2_buf_1
Xinput61 net80 FrameData[19] VPWR VGND sg13g2_buf_4
Xinput50 EE4END[9] net50 VPWR VGND sg13g2_buf_2
XFILLER_16_12 VPWR VGND sg13g2_fill_1
X_109_ Inst_E_IO_ConfigMem.Inst_frame1_bit4.Q net8 net10 net12 net14 Inst_E_IO_ConfigMem.Inst_frame1_bit5.Q
+ Inst_E_IO_switch_matrix.WW4BEG5 VPWR VGND sg13g2_mux4_1
Xfanout69 net71 net69 VPWR VGND sg13g2_buf_2
XFILLER_54_20 VPWR VGND sg13g2_fill_1
XANTENNA_120 VPWR VGND FrameStrobe[11] sg13g2_antennanp
X_090_ Inst_E_IO_ConfigMem.Inst_frame0_bit10.Q net46 net39 net30 Inst_A_IO_1_bidirectional_frame_config_pass.Q
+ Inst_E_IO_ConfigMem.Inst_frame0_bit11.Q Inst_E_IO_switch_matrix.W6BEG8 VPWR VGND
+ sg13g2_mux4_1
XANTENNA_131 VPWR VGND net182 sg13g2_antennanp
XANTENNA_142 VPWR VGND net180 sg13g2_antennanp
X_357_ Inst_E_IO_switch_matrix.WW4BEG2 net207 VPWR VGND sg13g2_buf_2
X_288_ net79 net123 VPWR VGND sg13g2_buf_1
XANTENNA_153 VPWR VGND net180 sg13g2_antennanp
Xinput4 E1END[1] net4 VPWR VGND sg13g2_buf_2
X_211_ net99 net68 Inst_E_IO_ConfigMem.Inst_frame1_bit7.Q VPWR VGND sg13g2_dlhq_1
X_142_ _039_ net11 Inst_E_IO_ConfigMem.Inst_frame0_bit24.Q VPWR VGND sg13g2_nand2_1
XFILLER_4_0 VPWR VGND sg13g2_fill_2
X_073_ Inst_E_IO_ConfigMem.Inst_frame0_bit20.Q _018_ _019_ VPWR VGND sg13g2_nor2_1
XANTENNA_42 VPWR VGND FrameStrobe[19] sg13g2_antennanp
XANTENNA_31 VPWR VGND FrameStrobe[9] sg13g2_antennanp
XANTENNA_64 VPWR VGND FrameStrobe[8] sg13g2_antennanp
XANTENNA_20 VPWR VGND FrameStrobe[11] sg13g2_antennanp
XANTENNA_75 VPWR VGND FrameStrobe[18] sg13g2_antennanp
XANTENNA_53 VPWR VGND FrameStrobe[10] sg13g2_antennanp
XANTENNA_97 VPWR VGND FrameStrobe[7] sg13g2_antennanp
XFILLER_2_92 VPWR VGND sg13g2_fill_2
XANTENNA_86 VPWR VGND net206 sg13g2_antennanp
XFILLER_21_57 VPWR VGND sg13g2_decap_8
X_056_ VPWR _003_ Inst_E_IO_ConfigMem.Inst_frame0_bit31.Q VGND sg13g2_inv_1
Xoutput160 net179 W2BEGb[0] VPWR VGND sg13g2_buf_1
Xoutput193 net212 WW4BEG[7] VPWR VGND sg13g2_buf_1
XFILLER_11_90 VPWR VGND sg13g2_fill_1
Xoutput182 net201 WW4BEG[11] VPWR VGND sg13g2_buf_1
Xoutput171 net190 W6BEG[1] VPWR VGND sg13g2_buf_1
X_125_ Inst_E_IO_ConfigMem.Inst_frame2_bit4.Q net17 net43 net36 net27 Inst_E_IO_ConfigMem.Inst_frame2_bit5.Q
+ Inst_E_IO_switch_matrix.W2BEG5 VPWR VGND sg13g2_mux4_1
Xinput73 FrameData[2] net92 VPWR VGND sg13g2_buf_2
Xinput62 FrameData[1] net81 VPWR VGND sg13g2_buf_1
Xinput51 FrameData[0] net51 VPWR VGND sg13g2_buf_1
Xinput40 EE4END[14] net40 VPWR VGND sg13g2_buf_1
XFILLER_32_89 VPWR VGND sg13g2_fill_2
XFILLER_32_23 VPWR VGND sg13g2_fill_1
X_108_ Inst_E_IO_ConfigMem.Inst_frame1_bit7.Q net15 net19 net17 net21 Inst_E_IO_ConfigMem.Inst_frame1_bit6.Q
+ Inst_E_IO_switch_matrix.WW4BEG6 VPWR VGND sg13g2_mux4_1
Xfanout59 net60 net59 VPWR VGND sg13g2_buf_2
XFILLER_49_98 VPWR VGND sg13g2_fill_1
XANTENNA_121 VPWR VGND FrameStrobe[12] sg13g2_antennanp
X_356_ Inst_E_IO_switch_matrix.WW4BEG1 net206 VPWR VGND sg13g2_buf_2
X_287_ net78 net122 VPWR VGND sg13g2_buf_1
XANTENNA_132 VPWR VGND net206 sg13g2_antennanp
XANTENNA_143 VPWR VGND net182 sg13g2_antennanp
XANTENNA_154 VPWR VGND net182 sg13g2_antennanp
Xinput5 E1END[2] net5 VPWR VGND sg13g2_buf_2
XANTENNA_110 VPWR VGND FrameStrobe[3] sg13g2_antennanp
XFILLER_10_48 VPWR VGND sg13g2_fill_1
X_072_ Inst_E_IO_ConfigMem.Inst_frame0_bit18.Q net7 net8 net9 net10 Inst_E_IO_ConfigMem.Inst_frame0_bit19.Q
+ _018_ VPWR VGND sg13g2_mux4_1
X_210_ net98 net68 Inst_E_IO_ConfigMem.Inst_frame1_bit6.Q VPWR VGND sg13g2_dlhq_1
X_141_ Inst_E_IO_ConfigMem.Inst_frame0_bit23.Q VPWR _038_ VGND net9 Inst_E_IO_ConfigMem.Inst_frame0_bit24.Q
+ sg13g2_o21ai_1
XANTENNA_10 VPWR VGND FrameStrobe[4] sg13g2_antennanp
XANTENNA_43 VPWR VGND FrameStrobe[3] sg13g2_antennanp
XANTENNA_65 VPWR VGND FrameStrobe[9] sg13g2_antennanp
XANTENNA_21 VPWR VGND FrameStrobe[12] sg13g2_antennanp
XANTENNA_54 VPWR VGND FrameStrobe[11] sg13g2_antennanp
X_339_ Inst_E_IO_switch_matrix.W2BEGb4 net183 VPWR VGND sg13g2_buf_2
XFILLER_2_71 VPWR VGND sg13g2_decap_8
XANTENNA_32 VPWR VGND net174 sg13g2_antennanp
XANTENNA_76 VPWR VGND FrameStrobe[19] sg13g2_antennanp
XANTENNA_98 VPWR VGND FrameStrobe[8] sg13g2_antennanp
XANTENNA_87 VPWR VGND FrameStrobe[10] sg13g2_antennanp
X_055_ VPWR _002_ Inst_E_IO_ConfigMem.Inst_frame0_bit20.Q VGND sg13g2_inv_1
Xoutput150 net169 W1BEG[2] VPWR VGND sg13g2_buf_1
Xoutput161 net180 W2BEGb[1] VPWR VGND sg13g2_buf_1
X_124_ Inst_E_IO_ConfigMem.Inst_frame2_bit6.Q net16 net42 net50 net26 Inst_E_IO_ConfigMem.Inst_frame2_bit7.Q
+ Inst_E_IO_switch_matrix.W2BEG6 VPWR VGND sg13g2_mux4_1
XFILLER_7_49 VPWR VGND sg13g2_fill_2
Xoutput194 net213 WW4BEG[8] VPWR VGND sg13g2_buf_1
Xoutput183 net202 WW4BEG[12] VPWR VGND sg13g2_buf_1
Xoutput172 net191 W6BEG[2] VPWR VGND sg13g2_buf_1
Xinput74 FrameData[30] net93 VPWR VGND sg13g2_buf_2
Xinput63 net82 FrameData[20] VPWR VGND sg13g2_buf_4
Xinput52 FrameData[10] net52 VPWR VGND sg13g2_buf_1
Xinput30 E6END[5] net30 VPWR VGND sg13g2_buf_2
Xinput41 EE4END[15] net41 VPWR VGND sg13g2_buf_1
X_107_ Inst_E_IO_ConfigMem.Inst_frame1_bit9.Q net16 net20 net18 net22 Inst_E_IO_ConfigMem.Inst_frame1_bit8.Q
+ Inst_E_IO_switch_matrix.WW4BEG7 VPWR VGND sg13g2_mux4_1
X_372_ net81 net125 VPWR VGND sg13g2_buf_2
XFILLER_40_79 VPWR VGND sg13g2_fill_2
XFILLER_5_93 VPWR VGND sg13g2_fill_2