* NGSPICE file created from S_term_single.ext - technology: sky130A

* Black-box entry subcircuit for sky130_ef_sc_hd__decap_12 abstract view
.subckt sky130_ef_sc_hd__decap_12 VPWR VGND VPB VNB
.ends

* Black-box entry subcircuit for sky130_fd_sc_hd__decap_3 abstract view
.subckt sky130_fd_sc_hd__decap_3 VGND VNB VPB VPWR
.ends

* Black-box entry subcircuit for sky130_fd_sc_hd__decap_4 abstract view
.subckt sky130_fd_sc_hd__decap_4 VGND VNB VPB VPWR
.ends

* Black-box entry subcircuit for sky130_fd_sc_hd__tapvpwrvgnd_1 abstract view
.subckt sky130_fd_sc_hd__tapvpwrvgnd_1 VGND VPWR
.ends

* Black-box entry subcircuit for sky130_fd_sc_hd__decap_8 abstract view
.subckt sky130_fd_sc_hd__decap_8 VGND VNB VPB VPWR
.ends

* Black-box entry subcircuit for sky130_fd_sc_hd__clkbuf_1 abstract view
.subckt sky130_fd_sc_hd__clkbuf_1 A VGND VNB VPB VPWR X
.ends

* Black-box entry subcircuit for sky130_fd_sc_hd__fill_1 abstract view
.subckt sky130_fd_sc_hd__fill_1 VGND VNB VPB VPWR
.ends

* Black-box entry subcircuit for sky130_fd_sc_hd__buf_1 abstract view
.subckt sky130_fd_sc_hd__buf_1 A VGND VNB VPB VPWR X
.ends

* Black-box entry subcircuit for sky130_fd_sc_hd__decap_6 abstract view
.subckt sky130_fd_sc_hd__decap_6 VGND VNB VPB VPWR
.ends

* Black-box entry subcircuit for sky130_fd_sc_hd__diode_2 abstract view
.subckt sky130_fd_sc_hd__diode_2 DIODE VGND VNB VPB VPWR
.ends

* Black-box entry subcircuit for sky130_fd_sc_hd__buf_2 abstract view
.subckt sky130_fd_sc_hd__buf_2 A VGND VNB VPB VPWR X
.ends

* Black-box entry subcircuit for sky130_fd_sc_hd__fill_2 abstract view
.subckt sky130_fd_sc_hd__fill_2 VGND VNB VPB VPWR
.ends

* Black-box entry subcircuit for sky130_fd_sc_hd__clkbuf_2 abstract view
.subckt sky130_fd_sc_hd__clkbuf_2 A VGND VNB VPB VPWR X
.ends

* Black-box entry subcircuit for sky130_fd_sc_hd__conb_1 abstract view
.subckt sky130_fd_sc_hd__conb_1 VGND VNB VPB VPWR HI LO
.ends

.subckt S_term_single Co FrameData[0] FrameData[10] FrameData[11] FrameData[12] FrameData[13]
+ FrameData[14] FrameData[15] FrameData[16] FrameData[17] FrameData[18] FrameData[19]
+ FrameData[1] FrameData[20] FrameData[21] FrameData[22] FrameData[23] FrameData[24]
+ FrameData[25] FrameData[26] FrameData[27] FrameData[28] FrameData[29] FrameData[2]
+ FrameData[30] FrameData[31] FrameData[3] FrameData[4] FrameData[5] FrameData[6]
+ FrameData[7] FrameData[8] FrameData[9] FrameData_O[0] FrameData_O[10] FrameData_O[11]
+ FrameData_O[12] FrameData_O[13] FrameData_O[14] FrameData_O[15] FrameData_O[16]
+ FrameData_O[17] FrameData_O[18] FrameData_O[19] FrameData_O[1] FrameData_O[20] FrameData_O[21]
+ FrameData_O[22] FrameData_O[23] FrameData_O[24] FrameData_O[25] FrameData_O[26]
+ FrameData_O[27] FrameData_O[28] FrameData_O[29] FrameData_O[2] FrameData_O[30] FrameData_O[31]
+ FrameData_O[3] FrameData_O[4] FrameData_O[5] FrameData_O[6] FrameData_O[7] FrameData_O[8]
+ FrameData_O[9] FrameStrobe[0] FrameStrobe[10] FrameStrobe[11] FrameStrobe[12] FrameStrobe[13]
+ FrameStrobe[14] FrameStrobe[15] FrameStrobe[16] FrameStrobe[17] FrameStrobe[18]
+ FrameStrobe[19] FrameStrobe[1] FrameStrobe[2] FrameStrobe[3] FrameStrobe[4] FrameStrobe[5]
+ FrameStrobe[6] FrameStrobe[7] FrameStrobe[8] FrameStrobe[9] FrameStrobe_O[0] FrameStrobe_O[10]
+ FrameStrobe_O[11] FrameStrobe_O[12] FrameStrobe_O[13] FrameStrobe_O[14] FrameStrobe_O[15]
+ FrameStrobe_O[16] FrameStrobe_O[17] FrameStrobe_O[18] FrameStrobe_O[19] FrameStrobe_O[1]
+ FrameStrobe_O[2] FrameStrobe_O[3] FrameStrobe_O[4] FrameStrobe_O[5] FrameStrobe_O[6]
+ FrameStrobe_O[7] FrameStrobe_O[8] FrameStrobe_O[9] N1BEG[0] N1BEG[1] N1BEG[2] N1BEG[3]
+ N2BEG[0] N2BEG[1] N2BEG[2] N2BEG[3] N2BEG[4] N2BEG[5] N2BEG[6] N2BEG[7] N2BEGb[0]
+ N2BEGb[1] N2BEGb[2] N2BEGb[3] N2BEGb[4] N2BEGb[5] N2BEGb[6] N2BEGb[7] N4BEG[0] N4BEG[10]
+ N4BEG[11] N4BEG[12] N4BEG[13] N4BEG[14] N4BEG[15] N4BEG[1] N4BEG[2] N4BEG[3] N4BEG[4]
+ N4BEG[5] N4BEG[6] N4BEG[7] N4BEG[8] N4BEG[9] NN4BEG[0] NN4BEG[10] NN4BEG[11] NN4BEG[12]
+ NN4BEG[13] NN4BEG[14] NN4BEG[15] NN4BEG[1] NN4BEG[2] NN4BEG[3] NN4BEG[4] NN4BEG[5]
+ NN4BEG[6] NN4BEG[7] NN4BEG[8] NN4BEG[9] S1END[0] S1END[1] S1END[2] S1END[3] S2END[0]
+ S2END[1] S2END[2] S2END[3] S2END[4] S2END[5] S2END[6] S2END[7] S2MID[0] S2MID[1]
+ S2MID[2] S2MID[3] S2MID[4] S2MID[5] S2MID[6] S2MID[7] S4END[0] S4END[10] S4END[11]
+ S4END[12] S4END[13] S4END[14] S4END[15] S4END[1] S4END[2] S4END[3] S4END[4] S4END[5]
+ S4END[6] S4END[7] S4END[8] S4END[9] SS4END[0] SS4END[10] SS4END[11] SS4END[12] SS4END[13]
+ SS4END[14] SS4END[15] SS4END[1] SS4END[2] SS4END[3] SS4END[4] SS4END[5] SS4END[6]
+ SS4END[7] SS4END[8] SS4END[9] UserCLK UserCLKo VGND VPWR
XFILLER_10_328 VPWR VGND VPWR VGND sky130_ef_sc_hd__decap_12
XFILLER_9_137 VGND VGND VPWR VPWR sky130_fd_sc_hd__decap_3
XFILLER_5_332 VGND VGND VPWR VPWR sky130_fd_sc_hd__decap_4
XTAP_TAPCELL_ROW_8_88 VGND VPWR sky130_fd_sc_hd__tapvpwrvgnd_1
XFILLER_6_129 VGND VGND VPWR VPWR sky130_fd_sc_hd__decap_8
XPHY_EDGE_ROW_0_Left_12 VGND VGND VPWR VPWR sky130_fd_sc_hd__decap_3
XTAP_TAPCELL_ROW_11_120 VGND VPWR sky130_fd_sc_hd__tapvpwrvgnd_1
XFILLER_7_405 VGND VGND VPWR VPWR sky130_fd_sc_hd__decap_4
X_062_ S2MID[2] VGND VGND VPWR VPWR net62 sky130_fd_sc_hd__clkbuf_1
XFILLER_9_55 VGND VGND VPWR VPWR sky130_fd_sc_hd__fill_1
XFILLER_0_57 VPWR VGND VPWR VGND sky130_ef_sc_hd__decap_12
XFILLER_2_110 VPWR VGND VPWR VGND sky130_ef_sc_hd__decap_12
XFILLER_2_165 VPWR VGND VPWR VGND sky130_ef_sc_hd__decap_12
XFILLER_11_253 VPWR VGND VPWR VGND sky130_ef_sc_hd__decap_12
XFILLER_7_213 VGND VGND VPWR VPWR sky130_fd_sc_hd__decap_8
XTAP_TAPCELL_ROW_5_67 VGND VPWR sky130_fd_sc_hd__tapvpwrvgnd_1
X_045_ FrameStrobe[12] VGND VGND VPWR VPWR net36 sky130_fd_sc_hd__buf_1
X_028_ FrameData[27] VGND VGND VPWR VPWR net20 sky130_fd_sc_hd__buf_1
XFILLER_6_34 VGND VGND VPWR VPWR sky130_fd_sc_hd__decap_6
XFILLER_3_293 VPWR VGND VPWR VGND sky130_ef_sc_hd__decap_12
XANTENNA_5 FrameData[17] VGND VGND VPWR VPWR sky130_fd_sc_hd__diode_2
Xoutput42 net42 VGND VGND VPWR VPWR FrameStrobe_O[18] sky130_fd_sc_hd__buf_2
Xoutput97 net97 VGND VGND VPWR VPWR NN4BEG[2] sky130_fd_sc_hd__buf_2
Xoutput86 net86 VGND VGND VPWR VPWR N4BEG[7] sky130_fd_sc_hd__buf_2
Xoutput64 net64 VGND VGND VPWR VPWR N2BEG[7] sky130_fd_sc_hd__buf_2
Xoutput75 net75 VGND VGND VPWR VPWR N4BEG[11] sky130_fd_sc_hd__buf_2
Xoutput53 net53 VGND VGND VPWR VPWR N1BEG[0] sky130_fd_sc_hd__buf_2
Xoutput20 net20 VGND VGND VPWR VPWR FrameData_O[27] sky130_fd_sc_hd__buf_2
Xoutput7 net7 VGND VGND VPWR VPWR FrameData_O[15] sky130_fd_sc_hd__buf_2
XTAP_TAPCELL_ROW_2_46 VGND VPWR sky130_fd_sc_hd__tapvpwrvgnd_1
Xoutput31 net31 VGND VGND VPWR VPWR FrameData_O[8] sky130_fd_sc_hd__buf_2
XFILLER_3_57 VPWR VGND VPWR VGND sky130_ef_sc_hd__decap_12
XFILLER_10_148 VGND VGND VPWR VPWR sky130_fd_sc_hd__decap_4
XTAP_TAPCELL_ROW_11_121 VGND VPWR sky130_fd_sc_hd__tapvpwrvgnd_1
XTAP_TAPCELL_ROW_11_110 VGND VPWR sky130_fd_sc_hd__tapvpwrvgnd_1
XTAP_TAPCELL_ROW_8_89 VGND VPWR sky130_fd_sc_hd__tapvpwrvgnd_1
XFILLER_1_391 VGND VGND VPWR VPWR sky130_fd_sc_hd__fill_1
XFILLER_5_163 VGND VGND VPWR VPWR sky130_fd_sc_hd__decap_4
XFILLER_5_185 VPWR VGND VPWR VGND sky130_ef_sc_hd__decap_12
X_061_ S2MID[3] VGND VGND VPWR VPWR net61 sky130_fd_sc_hd__clkbuf_1
XFILLER_0_69 VPWR VGND VPWR VGND sky130_ef_sc_hd__decap_12
XFILLER_2_122 VPWR VGND VPWR VGND sky130_ef_sc_hd__decap_12
XFILLER_4_409 VGND VGND VPWR VPWR sky130_fd_sc_hd__fill_1
XFILLER_11_265 VPWR VGND VPWR VGND sky130_ef_sc_hd__decap_12
XFILLER_11_221 VGND VGND VPWR VPWR sky130_fd_sc_hd__decap_3
XFILLER_7_225 VPWR VGND VPWR VGND sky130_ef_sc_hd__decap_12
X_044_ FrameStrobe[11] VGND VGND VPWR VPWR net35 sky130_fd_sc_hd__buf_1
XTAP_TAPCELL_ROW_5_68 VGND VPWR sky130_fd_sc_hd__tapvpwrvgnd_1
X_027_ FrameData[26] VGND VGND VPWR VPWR net19 sky130_fd_sc_hd__buf_1
XANTENNA_6 FrameData[18] VGND VGND VPWR VPWR sky130_fd_sc_hd__diode_2
XFILLER_6_68 VPWR VGND VPWR VGND sky130_ef_sc_hd__decap_12
XPHY_EDGE_ROW_6_Right_6 VGND VGND VPWR VPWR sky130_fd_sc_hd__decap_3
XFILLER_1_209 VGND VGND VPWR VPWR sky130_fd_sc_hd__decap_3
Xoutput98 net98 VGND VGND VPWR VPWR NN4BEG[3] sky130_fd_sc_hd__buf_2
Xoutput76 net76 VGND VGND VPWR VPWR N4BEG[12] sky130_fd_sc_hd__buf_2
Xoutput87 net87 VGND VGND VPWR VPWR N4BEG[8] sky130_fd_sc_hd__buf_2
Xoutput54 net54 VGND VGND VPWR VPWR N1BEG[1] sky130_fd_sc_hd__buf_2
Xoutput43 net43 VGND VGND VPWR VPWR FrameStrobe_O[19] sky130_fd_sc_hd__buf_2
Xoutput65 net65 VGND VGND VPWR VPWR N2BEGb[0] sky130_fd_sc_hd__buf_2
Xoutput21 net21 VGND VGND VPWR VPWR FrameData_O[28] sky130_fd_sc_hd__buf_2
Xoutput10 net10 VGND VGND VPWR VPWR FrameData_O[18] sky130_fd_sc_hd__buf_2
Xoutput8 net8 VGND VGND VPWR VPWR FrameData_O[16] sky130_fd_sc_hd__buf_2
XFILLER_0_253 VPWR VGND VPWR VGND sky130_ef_sc_hd__decap_12
XTAP_TAPCELL_ROW_2_47 VGND VPWR sky130_fd_sc_hd__tapvpwrvgnd_1
Xoutput32 net32 VGND VGND VPWR VPWR FrameData_O[9] sky130_fd_sc_hd__buf_2
XFILLER_3_47 VGND VGND VPWR VPWR sky130_fd_sc_hd__fill_2
XFILLER_3_69 VPWR VGND VPWR VGND sky130_ef_sc_hd__decap_12
XFILLER_6_109 VGND VGND VPWR VPWR sky130_fd_sc_hd__decap_4
XTAP_TAPCELL_ROW_11_111 VGND VPWR sky130_fd_sc_hd__tapvpwrvgnd_1
XFILLER_5_197 VPWR VGND VPWR VGND sky130_ef_sc_hd__decap_12
XFILLER_0_15 VPWR VGND VPWR VGND sky130_ef_sc_hd__decap_12
XFILLER_2_134 VGND VGND VPWR VPWR sky130_fd_sc_hd__decap_6
XFILLER_3_3 VPWR VGND VPWR VGND sky130_ef_sc_hd__decap_12
X_060_ S2MID[4] VGND VGND VPWR VPWR net60 sky130_fd_sc_hd__clkbuf_1
XFILLER_9_57 VPWR VGND VPWR VGND sky130_ef_sc_hd__decap_12
XFILLER_11_277 VGND VGND VPWR VPWR sky130_fd_sc_hd__decap_3
XFILLER_7_237 VPWR VGND VPWR VGND sky130_ef_sc_hd__decap_12
X_043_ FrameStrobe[10] VGND VGND VPWR VPWR net34 sky130_fd_sc_hd__clkbuf_1
XTAP_TAPCELL_ROW_5_69 VGND VPWR sky130_fd_sc_hd__tapvpwrvgnd_1
X_026_ FrameData[25] VGND VGND VPWR VPWR net18 sky130_fd_sc_hd__buf_1
XANTENNA_7 FrameData[19] VGND VGND VPWR VPWR sky130_fd_sc_hd__diode_2
Xoutput44 net44 VGND VGND VPWR VPWR FrameStrobe_O[1] sky130_fd_sc_hd__buf_2
Xoutput33 net33 VGND VGND VPWR VPWR FrameStrobe_O[0] sky130_fd_sc_hd__buf_2
Xoutput77 net77 VGND VGND VPWR VPWR N4BEG[13] sky130_fd_sc_hd__buf_2
Xoutput66 net66 VGND VGND VPWR VPWR N2BEGb[1] sky130_fd_sc_hd__buf_2
Xoutput55 net55 VGND VGND VPWR VPWR N1BEG[2] sky130_fd_sc_hd__buf_2
Xoutput99 net99 VGND VGND VPWR VPWR NN4BEG[4] sky130_fd_sc_hd__buf_2
Xoutput88 net88 VGND VGND VPWR VPWR N4BEG[9] sky130_fd_sc_hd__buf_2
Xoutput22 net22 VGND VGND VPWR VPWR FrameData_O[29] sky130_fd_sc_hd__buf_2
Xoutput11 net11 VGND VGND VPWR VPWR FrameData_O[19] sky130_fd_sc_hd__buf_2
Xoutput9 net9 VGND VGND VPWR VPWR FrameData_O[17] sky130_fd_sc_hd__buf_2
XFILLER_0_265 VPWR VGND VPWR VGND sky130_ef_sc_hd__decap_12
XFILLER_0_221 VGND VGND VPWR VPWR sky130_fd_sc_hd__decap_3
XTAP_TAPCELL_ROW_2_48 VGND VPWR sky130_fd_sc_hd__tapvpwrvgnd_1
XFILLER_8_365 VPWR VGND VPWR VGND sky130_ef_sc_hd__decap_12
X_009_ FrameData[8] VGND VGND VPWR VPWR net31 sky130_fd_sc_hd__clkbuf_2
XFILLER_10_309 VPWR VGND VPWR VGND sky130_ef_sc_hd__decap_12
XFILLER_9_107 VGND VGND VPWR VPWR sky130_fd_sc_hd__decap_4
XFILLER_8_195 VGND VGND VPWR VPWR sky130_fd_sc_hd__fill_1
XFILLER_3_15 VPWR VGND VPWR VGND sky130_ef_sc_hd__decap_12
XFILLER_10_139 VGND VGND VPWR VPWR sky130_fd_sc_hd__fill_1
XFILLER_10_106 VGND VGND VPWR VPWR sky130_fd_sc_hd__decap_4
XFILLER_2_316 VPWR VGND VPWR VGND sky130_ef_sc_hd__decap_12
XTAP_TAPCELL_ROW_11_112 VGND VPWR sky130_fd_sc_hd__tapvpwrvgnd_1
XFILLER_5_132 VPWR VGND VPWR VGND sky130_ef_sc_hd__decap_12
XFILLER_1_393 VPWR VGND VPWR VGND sky130_ef_sc_hd__decap_12
XFILLER_0_27 VGND VGND VPWR VPWR sky130_fd_sc_hd__fill_1
XPHY_EDGE_ROW_4_Left_16 VGND VGND VPWR VPWR sky130_fd_sc_hd__decap_3
XFILLER_9_69 VGND VGND VPWR VPWR sky130_fd_sc_hd__fill_2
X_042_ FrameStrobe[9] VGND VGND VPWR VPWR net52 sky130_fd_sc_hd__clkbuf_1
XFILLER_7_249 VGND VGND VPWR VPWR sky130_fd_sc_hd__fill_2
XFILLER_1_81 VGND VGND VPWR VPWR sky130_fd_sc_hd__fill_2
XFILLER_6_59 VGND VGND VPWR VPWR sky130_fd_sc_hd__fill_1
XFILLER_6_15 VPWR VGND VPWR VGND sky130_ef_sc_hd__decap_12
XANTENNA_8 FrameData[1] VGND VGND VPWR VPWR sky130_fd_sc_hd__diode_2
X_025_ FrameData[24] VGND VGND VPWR VPWR net17 sky130_fd_sc_hd__buf_1
Xoutput34 net34 VGND VGND VPWR VPWR FrameStrobe_O[10] sky130_fd_sc_hd__buf_2
Xoutput45 net45 VGND VGND VPWR VPWR FrameStrobe_O[2] sky130_fd_sc_hd__buf_2
Xoutput89 net89 VGND VGND VPWR VPWR NN4BEG[0] sky130_fd_sc_hd__buf_2
Xoutput78 net78 VGND VGND VPWR VPWR N4BEG[14] sky130_fd_sc_hd__buf_2
Xoutput67 net67 VGND VGND VPWR VPWR N2BEGb[2] sky130_fd_sc_hd__buf_2
Xoutput56 net56 VGND VGND VPWR VPWR N1BEG[3] sky130_fd_sc_hd__buf_2
XFILLER_0_277 VGND VGND VPWR VPWR sky130_fd_sc_hd__decap_3
Xoutput12 net12 VGND VGND VPWR VPWR FrameData_O[1] sky130_fd_sc_hd__buf_2
Xoutput23 net23 VGND VGND VPWR VPWR FrameData_O[2] sky130_fd_sc_hd__buf_2
XTAP_TAPCELL_ROW_2_49 VGND VPWR sky130_fd_sc_hd__tapvpwrvgnd_1
XFILLER_11_3 VPWR VGND VPWR VGND sky130_ef_sc_hd__decap_12
XFILLER_8_377 VPWR VGND VPWR VGND sky130_ef_sc_hd__decap_12
X_008_ FrameData[7] VGND VGND VPWR VPWR net30 sky130_fd_sc_hd__buf_1
XFILLER_3_27 VPWR VGND VPWR VGND sky130_ef_sc_hd__decap_12
XFILLER_8_141 VPWR VGND VPWR VGND sky130_ef_sc_hd__decap_12
XTAP_TAPCELL_ROW_11_113 VGND VPWR sky130_fd_sc_hd__tapvpwrvgnd_1
XFILLER_2_328 VPWR VGND VPWR VGND sky130_ef_sc_hd__decap_12
XFILLER_5_111 VGND VGND VPWR VPWR sky130_fd_sc_hd__fill_1
XFILLER_5_144 VPWR VGND VPWR VGND sky130_ef_sc_hd__decap_12
XFILLER_5_177 VGND VGND VPWR VPWR sky130_fd_sc_hd__decap_4
XFILLER_7_409 VGND VGND VPWR VPWR sky130_fd_sc_hd__fill_1
XFILLER_2_147 VGND VGND VPWR VPWR sky130_fd_sc_hd__fill_1
XFILLER_9_15 VGND VGND VPWR VPWR sky130_fd_sc_hd__fill_1
X_041_ FrameStrobe[8] VGND VGND VPWR VPWR net51 sky130_fd_sc_hd__clkbuf_1
XFILLER_6_27 VGND VGND VPWR VPWR sky130_fd_sc_hd__fill_1
X_024_ FrameData[23] VGND VGND VPWR VPWR net16 sky130_fd_sc_hd__buf_1
XANTENNA_9 FrameData[20] VGND VGND VPWR VPWR sky130_fd_sc_hd__diode_2
Xoutput46 net46 VGND VGND VPWR VPWR FrameStrobe_O[3] sky130_fd_sc_hd__buf_2
Xoutput57 net57 VGND VGND VPWR VPWR N2BEG[0] sky130_fd_sc_hd__buf_2
Xoutput35 net35 VGND VGND VPWR VPWR FrameStrobe_O[11] sky130_fd_sc_hd__buf_2
Xoutput13 net13 VGND VGND VPWR VPWR FrameData_O[20] sky130_fd_sc_hd__buf_2
Xoutput24 net24 VGND VGND VPWR VPWR FrameData_O[30] sky130_fd_sc_hd__buf_2
Xoutput79 net79 VGND VGND VPWR VPWR N4BEG[15] sky130_fd_sc_hd__buf_2
Xoutput68 net68 VGND VGND VPWR VPWR N2BEGb[3] sky130_fd_sc_hd__buf_2
XFILLER_8_389 VPWR VGND VPWR VGND sky130_ef_sc_hd__decap_12
X_007_ FrameData[6] VGND VGND VPWR VPWR net29 sky130_fd_sc_hd__buf_1
XFILLER_5_337 VPWR VGND VPWR VGND sky130_ef_sc_hd__decap_12
XFILLER_3_39 VGND VGND VPWR VPWR sky130_fd_sc_hd__decap_8
XFILLER_8_197 VPWR VGND VPWR VGND sky130_ef_sc_hd__decap_12
XFILLER_8_153 VPWR VGND VPWR VGND sky130_ef_sc_hd__decap_12
XFILLER_2_307 VGND VGND VPWR VPWR sky130_fd_sc_hd__fill_1
XTAP_TAPCELL_ROW_11_114 VGND VPWR sky130_fd_sc_hd__tapvpwrvgnd_1
XFILLER_5_156 VGND VGND VPWR VPWR sky130_fd_sc_hd__decap_4
XFILLER_5_167 VGND VGND VPWR VPWR sky130_fd_sc_hd__fill_1
XFILLER_0_29 VPWR VGND VPWR VGND sky130_ef_sc_hd__decap_12
XFILLER_9_281 VPWR VGND VPWR VGND sky130_ef_sc_hd__decap_12
XFILLER_11_225 VPWR VGND VPWR VGND sky130_ef_sc_hd__decap_12
XFILLER_1_3 VPWR VGND VPWR VGND sky130_ef_sc_hd__decap_12
X_040_ FrameStrobe[7] VGND VGND VPWR VPWR net50 sky130_fd_sc_hd__clkbuf_1
XFILLER_6_273 VPWR VGND VPWR VGND sky130_ef_sc_hd__decap_12
XFILLER_6_251 VGND VGND VPWR VPWR sky130_fd_sc_hd__fill_1
XFILLER_10_70 VGND VGND VPWR VPWR sky130_fd_sc_hd__fill_2
X_023_ FrameData[22] VGND VGND VPWR VPWR net15 sky130_fd_sc_hd__buf_1
XFILLER_3_243 VPWR VGND VPWR VGND sky130_ef_sc_hd__decap_12
Xoutput36 net36 VGND VGND VPWR VPWR FrameStrobe_O[12] sky130_fd_sc_hd__buf_2
Xoutput47 net47 VGND VGND VPWR VPWR FrameStrobe_O[4] sky130_fd_sc_hd__buf_2
Xoutput69 net69 VGND VGND VPWR VPWR N2BEGb[4] sky130_fd_sc_hd__buf_2
Xoutput58 net58 VGND VGND VPWR VPWR N2BEG[1] sky130_fd_sc_hd__buf_2
Xoutput14 net14 VGND VGND VPWR VPWR FrameData_O[21] sky130_fd_sc_hd__buf_2
Xoutput25 net25 VGND VGND VPWR VPWR FrameData_O[31] sky130_fd_sc_hd__buf_2
XFILLER_8_357 VGND VGND VPWR VPWR sky130_fd_sc_hd__fill_1
X_006_ FrameData[5] VGND VGND VPWR VPWR net28 sky130_fd_sc_hd__buf_1
XFILLER_5_349 VPWR VGND VPWR VGND sky130_ef_sc_hd__decap_12
XFILLER_8_165 VPWR VGND VPWR VGND sky130_ef_sc_hd__decap_12
XTAP_TAPCELL_ROW_11_115 VGND VPWR sky130_fd_sc_hd__tapvpwrvgnd_1
XFILLER_5_113 VPWR VGND VPWR VGND sky130_ef_sc_hd__decap_12
XFILLER_4_83 VGND VGND VPWR VPWR sky130_fd_sc_hd__fill_1
XFILLER_4_190 VGND VGND VPWR VPWR sky130_fd_sc_hd__fill_1
XFILLER_2_105 VGND VGND VPWR VPWR sky130_fd_sc_hd__fill_1
XFILLER_9_293 VPWR VGND VPWR VGND sky130_ef_sc_hd__decap_12
XFILLER_11_237 VPWR VGND VPWR VGND sky130_ef_sc_hd__decap_12
XFILLER_10_292 VPWR VGND VPWR VGND sky130_ef_sc_hd__decap_12
X_099_ SS4END[5] VGND VGND VPWR VPWR net90 sky130_fd_sc_hd__clkbuf_1
XFILLER_6_296 VPWR VGND VPWR VGND sky130_ef_sc_hd__decap_12
XFILLER_6_285 VGND VGND VPWR VPWR sky130_fd_sc_hd__decap_8
XFILLER_1_51 VGND VGND VPWR VPWR sky130_fd_sc_hd__decap_4
XFILLER_10_82 VGND VGND VPWR VPWR sky130_fd_sc_hd__fill_2
X_022_ FrameData[21] VGND VGND VPWR VPWR net14 sky130_fd_sc_hd__buf_1
XFILLER_3_255 VPWR VGND VPWR VGND sky130_ef_sc_hd__decap_12
Xoutput48 net48 VGND VGND VPWR VPWR FrameStrobe_O[5] sky130_fd_sc_hd__buf_2
Xoutput15 net15 VGND VGND VPWR VPWR FrameData_O[22] sky130_fd_sc_hd__buf_2
Xoutput37 net37 VGND VGND VPWR VPWR FrameStrobe_O[13] sky130_fd_sc_hd__buf_2
Xoutput59 net59 VGND VGND VPWR VPWR N2BEG[2] sky130_fd_sc_hd__buf_2
XFILLER_8_303 VGND VGND VPWR VPWR sky130_fd_sc_hd__decap_4
XFILLER_0_225 VPWR VGND VPWR VGND sky130_ef_sc_hd__decap_12
Xoutput26 net26 VGND VGND VPWR VPWR FrameData_O[3] sky130_fd_sc_hd__buf_2
XPHY_EDGE_ROW_1_Right_1 VGND VGND VPWR VPWR sky130_fd_sc_hd__decap_3
X_005_ FrameData[4] VGND VGND VPWR VPWR net27 sky130_fd_sc_hd__clkbuf_1
XFILLER_7_391 VGND VGND VPWR VPWR sky130_fd_sc_hd__fill_1
XFILLER_8_177 VPWR VGND VPWR VGND sky130_ef_sc_hd__decap_12
XFILLER_2_309 VGND VGND VPWR VPWR sky130_fd_sc_hd__decap_4
XTAP_TAPCELL_ROW_11_116 VGND VPWR sky130_fd_sc_hd__tapvpwrvgnd_1
XFILLER_1_331 VGND VGND VPWR VPWR sky130_fd_sc_hd__decap_4
XFILLER_5_125 VGND VGND VPWR VPWR sky130_fd_sc_hd__decap_4
XFILLER_9_261 VPWR VGND VPWR VGND sky130_ef_sc_hd__decap_12
XTAP_TAPCELL_ROW_9_94 VGND VPWR sky130_fd_sc_hd__tapvpwrvgnd_1
XFILLER_6_401 VGND VGND VPWR VPWR sky130_fd_sc_hd__fill_1
XTAP_TAPCELL_ROW_0_30 VGND VPWR sky130_fd_sc_hd__tapvpwrvgnd_1
XFILLER_1_183 VGND VGND VPWR VPWR sky130_fd_sc_hd__fill_1
XFILLER_11_249 VGND VGND VPWR VPWR sky130_fd_sc_hd__decap_3
X_098_ SS4END[6] VGND VGND VPWR VPWR net104 sky130_fd_sc_hd__buf_1
XFILLER_6_253 VPWR VGND VPWR VGND sky130_ef_sc_hd__decap_12
XFILLER_3_223 VGND VGND VPWR VPWR sky130_fd_sc_hd__fill_1
XFILLER_3_267 VPWR VGND VPWR VGND sky130_ef_sc_hd__decap_12
X_021_ FrameData[20] VGND VGND VPWR VPWR net13 sky130_fd_sc_hd__buf_1
XPHY_EDGE_ROW_11_Left_23 VGND VGND VPWR VPWR sky130_fd_sc_hd__decap_3
XTAP_TAPCELL_ROW_6_73 VGND VPWR sky130_fd_sc_hd__tapvpwrvgnd_1
Xoutput38 net38 VGND VGND VPWR VPWR FrameStrobe_O[14] sky130_fd_sc_hd__buf_2
Xoutput49 net49 VGND VGND VPWR VPWR FrameStrobe_O[6] sky130_fd_sc_hd__buf_2
Xoutput16 net16 VGND VGND VPWR VPWR FrameData_O[23] sky130_fd_sc_hd__buf_2
XFILLER_0_237 VPWR VGND VPWR VGND sky130_ef_sc_hd__decap_12
Xoutput27 net27 VGND VGND VPWR VPWR FrameData_O[4] sky130_fd_sc_hd__buf_2
XFILLER_8_315 VPWR VGND VPWR VGND sky130_ef_sc_hd__decap_12
X_004_ FrameData[3] VGND VGND VPWR VPWR net26 sky130_fd_sc_hd__clkbuf_2
XFILLER_7_84 VPWR VGND VPWR VGND sky130_ef_sc_hd__decap_12
XFILLER_7_51 VGND VGND VPWR VPWR sky130_fd_sc_hd__decap_4
XFILLER_8_189 VGND VGND VPWR VPWR sky130_fd_sc_hd__decap_6
XTAP_TAPCELL_ROW_3_52 VGND VPWR sky130_fd_sc_hd__tapvpwrvgnd_1
XTAP_TAPCELL_ROW_11_117 VGND VPWR sky130_fd_sc_hd__tapvpwrvgnd_1
XFILLER_4_41 VPWR VGND VPWR VGND sky130_ef_sc_hd__decap_12
XFILLER_4_85 VPWR VGND VPWR VGND sky130_ef_sc_hd__decap_12
XFILLER_4_170 VPWR VGND VPWR VGND sky130_ef_sc_hd__decap_12
XFILLER_11_409 VGND VGND VPWR VPWR sky130_fd_sc_hd__fill_1
XTAP_TAPCELL_ROW_9_95 VGND VPWR sky130_fd_sc_hd__tapvpwrvgnd_1
XFILLER_9_19 VPWR VGND VPWR VGND sky130_ef_sc_hd__decap_12
XTAP_TAPCELL_ROW_0_31 VGND VPWR sky130_fd_sc_hd__tapvpwrvgnd_1
XFILLER_9_273 VGND VGND VPWR VPWR sky130_fd_sc_hd__decap_6
XFILLER_3_405 VGND VGND VPWR VPWR sky130_fd_sc_hd__decap_4
XFILLER_6_265 VGND VGND VPWR VPWR sky130_fd_sc_hd__decap_4
XFILLER_6_221 VPWR VGND VPWR VGND sky130_ef_sc_hd__decap_12
X_097_ SS4END[7] VGND VGND VPWR VPWR net103 sky130_fd_sc_hd__buf_1
X_020_ FrameData[19] VGND VGND VPWR VPWR net11 sky130_fd_sc_hd__buf_1
XTAP_TAPCELL_ROW_6_74 VGND VPWR sky130_fd_sc_hd__tapvpwrvgnd_1
XFILLER_3_279 VGND VGND VPWR VPWR sky130_fd_sc_hd__fill_1
Xoutput17 net17 VGND VGND VPWR VPWR FrameData_O[24] sky130_fd_sc_hd__buf_2
Xoutput39 net39 VGND VGND VPWR VPWR FrameStrobe_O[15] sky130_fd_sc_hd__buf_2
XFILLER_0_249 VGND VGND VPWR VPWR sky130_fd_sc_hd__decap_3
Xoutput28 net28 VGND VGND VPWR VPWR FrameData_O[5] sky130_fd_sc_hd__buf_2
XFILLER_8_327 VPWR VGND VPWR VGND sky130_ef_sc_hd__decap_12
X_003_ FrameData[2] VGND VGND VPWR VPWR net23 sky130_fd_sc_hd__buf_1
XFILLER_7_393 VPWR VGND VPWR VGND sky130_ef_sc_hd__decap_12
XFILLER_7_96 VGND VGND VPWR VPWR sky130_fd_sc_hd__decap_6
XFILLER_7_74 VGND VGND VPWR VPWR sky130_fd_sc_hd__fill_2
XFILLER_7_30 VGND VGND VPWR VPWR sky130_fd_sc_hd__decap_6
XFILLER_5_308 VPWR VGND VPWR VGND sky130_ef_sc_hd__decap_12
XTAP_TAPCELL_ROW_3_53 VGND VPWR sky130_fd_sc_hd__tapvpwrvgnd_1
XTAP_TAPCELL_ROW_11_118 VGND VPWR sky130_fd_sc_hd__tapvpwrvgnd_1
XFILLER_5_105 VGND VGND VPWR VPWR sky130_fd_sc_hd__decap_6
XFILLER_1_355 VPWR VGND VPWR VGND sky130_ef_sc_hd__decap_12
XFILLER_4_182 VGND VGND VPWR VPWR sky130_fd_sc_hd__decap_8
XFILLER_4_53 VPWR VGND VPWR VGND sky130_ef_sc_hd__decap_12
XFILLER_4_97 VGND VGND VPWR VPWR sky130_fd_sc_hd__decap_8
XTAP_TAPCELL_ROW_0_32 VGND VPWR sky130_fd_sc_hd__tapvpwrvgnd_1
XTAP_TAPCELL_ROW_9_96 VGND VPWR sky130_fd_sc_hd__tapvpwrvgnd_1
X_096_ SS4END[8] VGND VGND VPWR VPWR net102 sky130_fd_sc_hd__buf_1
XFILLER_6_233 VPWR VGND VPWR VGND sky130_ef_sc_hd__decap_12
XFILLER_1_87 VPWR VGND VPWR VGND sky130_ef_sc_hd__decap_12
XFILLER_10_41 VGND VGND VPWR VPWR sky130_fd_sc_hd__fill_1
XTAP_TAPCELL_ROW_6_75 VGND VPWR sky130_fd_sc_hd__tapvpwrvgnd_1
XFILLER_3_225 VPWR VGND VPWR VGND sky130_ef_sc_hd__decap_12
Xoutput18 net18 VGND VGND VPWR VPWR FrameData_O[25] sky130_fd_sc_hd__buf_2
X_079_ S4END[9] VGND VGND VPWR VPWR net85 sky130_fd_sc_hd__clkbuf_1
Xoutput29 net29 VGND VGND VPWR VPWR FrameData_O[6] sky130_fd_sc_hd__buf_2
XFILLER_8_339 VPWR VGND VPWR VGND sky130_ef_sc_hd__decap_12
X_002_ FrameData[1] VGND VGND VPWR VPWR net12 sky130_fd_sc_hd__clkbuf_1
XFILLER_7_361 VPWR VGND VPWR VGND sky130_ef_sc_hd__decap_12
XPHY_EDGE_ROW_5_Right_5 VGND VGND VPWR VPWR sky130_fd_sc_hd__decap_3
XTAP_TAPCELL_ROW_3_54 VGND VPWR sky130_fd_sc_hd__tapvpwrvgnd_1
XTAP_TAPCELL_ROW_11_119 VGND VPWR sky130_fd_sc_hd__tapvpwrvgnd_1
XTAP_TAPCELL_ROW_11_108 VGND VPWR sky130_fd_sc_hd__tapvpwrvgnd_1
XFILLER_1_367 VPWR VGND VPWR VGND sky130_ef_sc_hd__decap_12
XFILLER_4_65 VPWR VGND VPWR VGND sky130_ef_sc_hd__decap_12
XFILLER_4_150 VPWR VGND VPWR VGND sky130_ef_sc_hd__decap_12
XTAP_TAPCELL_ROW_0_33 VGND VPWR sky130_fd_sc_hd__tapvpwrvgnd_1
XTAP_TAPCELL_ROW_9_97 VGND VPWR sky130_fd_sc_hd__tapvpwrvgnd_1
XFILLER_1_175 VGND VGND VPWR VPWR sky130_fd_sc_hd__decap_8
XFILLER_10_285 VGND VGND VPWR VPWR sky130_fd_sc_hd__fill_2
XFILLER_10_230 VGND VGND VPWR VPWR sky130_fd_sc_hd__decap_8
X_095_ SS4END[9] VGND VGND VPWR VPWR net101 sky130_fd_sc_hd__buf_1
XFILLER_6_245 VGND VGND VPWR VPWR sky130_fd_sc_hd__decap_6
XFILLER_1_99 VPWR VGND VPWR VGND sky130_ef_sc_hd__decap_12
XFILLER_1_55 VGND VGND VPWR VPWR sky130_fd_sc_hd__fill_1
XFILLER_10_97 VGND VGND VPWR VPWR sky130_fd_sc_hd__decap_4
XFILLER_10_64 VGND VGND VPWR VPWR sky130_fd_sc_hd__fill_2
XTAP_TAPCELL_ROW_6_76 VGND VPWR sky130_fd_sc_hd__tapvpwrvgnd_1
XFILLER_3_237 VGND VGND VPWR VPWR sky130_fd_sc_hd__fill_1
X_078_ S4END[10] VGND VGND VPWR VPWR net84 sky130_fd_sc_hd__clkbuf_1
Xoutput19 net19 VGND VGND VPWR VPWR FrameData_O[26] sky130_fd_sc_hd__buf_2
XFILLER_8_307 VGND VGND VPWR VPWR sky130_fd_sc_hd__fill_1
X_001_ FrameData[0] VGND VGND VPWR VPWR net1 sky130_fd_sc_hd__buf_1
XFILLER_7_373 VPWR VGND VPWR VGND sky130_ef_sc_hd__decap_12
XPHY_EDGE_ROW_11_Right_11 VGND VGND VPWR VPWR sky130_fd_sc_hd__decap_3
XFILLER_8_137 VGND VGND VPWR VPWR sky130_fd_sc_hd__decap_3
XTAP_TAPCELL_ROW_3_55 VGND VPWR sky130_fd_sc_hd__tapvpwrvgnd_1
XFILLER_4_321 VPWR VGND VPWR VGND sky130_ef_sc_hd__decap_12
XFILLER_4_365 VPWR VGND VPWR VGND sky130_ef_sc_hd__decap_12
XFILLER_7_181 VPWR VGND VPWR VGND sky130_ef_sc_hd__decap_12
XTAP_TAPCELL_ROW_11_109 VGND VPWR sky130_fd_sc_hd__tapvpwrvgnd_1
XFILLER_1_302 VPWR VGND VPWR VGND sky130_ef_sc_hd__decap_12
XFILLER_1_335 VGND VGND VPWR VPWR sky130_fd_sc_hd__fill_1
XFILLER_1_379 VPWR VGND VPWR VGND sky130_ef_sc_hd__decap_12
XFILLER_4_77 VGND VGND VPWR VPWR sky130_fd_sc_hd__decap_6
XFILLER_4_162 VGND VGND VPWR VPWR sky130_fd_sc_hd__decap_3
XFILLER_6_405 VGND VGND VPWR VPWR sky130_fd_sc_hd__decap_4
XTAP_TAPCELL_ROW_9_98 VGND VPWR sky130_fd_sc_hd__tapvpwrvgnd_1
XFILLER_9_221 VGND VGND VPWR VPWR sky130_fd_sc_hd__decap_3
XFILLER_1_165 VGND VGND VPWR VPWR sky130_fd_sc_hd__decap_3
XTAP_TAPCELL_ROW_0_34 VGND VPWR sky130_fd_sc_hd__tapvpwrvgnd_1
XFILLER_11_209 VPWR VGND VPWR VGND sky130_ef_sc_hd__decap_12
XPHY_EDGE_ROW_3_Left_15 VGND VGND VPWR VPWR sky130_fd_sc_hd__decap_3
XFILLER_10_253 VPWR VGND VPWR VGND sky130_ef_sc_hd__decap_12
XFILLER_10_242 VGND VGND VPWR VPWR sky130_fd_sc_hd__fill_1
X_094_ SS4END[10] VGND VGND VPWR VPWR net100 sky130_fd_sc_hd__buf_1
XFILLER_3_205 VPWR VGND VPWR VGND sky130_ef_sc_hd__decap_12
X_077_ S4END[11] VGND VGND VPWR VPWR net83 sky130_fd_sc_hd__clkbuf_1
XTAP_TAPCELL_ROW_6_77 VGND VPWR sky130_fd_sc_hd__tapvpwrvgnd_1
XFILLER_7_55 VGND VGND VPWR VPWR sky130_fd_sc_hd__fill_1
XFILLER_7_385 VGND VGND VPWR VPWR sky130_fd_sc_hd__decap_6
XFILLER_8_105 VPWR VGND VPWR VGND sky130_ef_sc_hd__decap_12
XTAP_TAPCELL_ROW_3_56 VGND VPWR sky130_fd_sc_hd__tapvpwrvgnd_1
XFILLER_4_333 VGND VGND VPWR VPWR sky130_fd_sc_hd__fill_1
XFILLER_4_377 VPWR VGND VPWR VGND sky130_ef_sc_hd__decap_12
XFILLER_7_193 VGND VGND VPWR VPWR sky130_fd_sc_hd__decap_3
XFILLER_4_141 VGND VGND VPWR VPWR sky130_fd_sc_hd__decap_6
XTAP_TAPCELL_ROW_9_99 VGND VPWR sky130_fd_sc_hd__tapvpwrvgnd_1
XFILLER_8_3 VPWR VGND VPWR VGND sky130_ef_sc_hd__decap_12
XFILLER_1_111 VGND VGND VPWR VPWR sky130_fd_sc_hd__fill_1
XTAP_TAPCELL_ROW_0_24 VGND VPWR sky130_fd_sc_hd__tapvpwrvgnd_1
XTAP_TAPCELL_ROW_0_35 VGND VPWR sky130_fd_sc_hd__tapvpwrvgnd_1
XFILLER_3_409 VGND VGND VPWR VPWR sky130_fd_sc_hd__fill_1
XFILLER_10_265 VPWR VGND VPWR VGND sky130_ef_sc_hd__decap_12
XFILLER_10_221 VGND VGND VPWR VPWR sky130_fd_sc_hd__decap_4
X_093_ SS4END[11] VGND VGND VPWR VPWR net99 sky130_fd_sc_hd__buf_1
XFILLER_1_57 VPWR VGND VPWR VGND sky130_ef_sc_hd__decap_12
XFILLER_10_77 VGND VGND VPWR VPWR sky130_fd_sc_hd__fill_1
XFILLER_3_217 VGND VGND VPWR VPWR sky130_fd_sc_hd__decap_6
X_076_ S4END[12] VGND VGND VPWR VPWR net82 sky130_fd_sc_hd__clkbuf_1
XTAP_TAPCELL_ROW_6_78 VGND VPWR sky130_fd_sc_hd__tapvpwrvgnd_1
XFILLER_0_209 VPWR VGND VPWR VGND sky130_ef_sc_hd__decap_12
XFILLER_8_309 VGND VGND VPWR VPWR sky130_fd_sc_hd__decap_3
X_059_ S2MID[5] VGND VGND VPWR VPWR net59 sky130_fd_sc_hd__clkbuf_1
XFILLER_8_117 VPWR VGND VPWR VGND sky130_ef_sc_hd__decap_12
XTAP_TAPCELL_ROW_3_57 VGND VPWR sky130_fd_sc_hd__tapvpwrvgnd_1
XPHY_EDGE_ROW_9_Right_9 VGND VGND VPWR VPWR sky130_fd_sc_hd__decap_3
XFILLER_4_356 VGND VGND VPWR VPWR sky130_fd_sc_hd__decap_8
XFILLER_4_389 VPWR VGND VPWR VGND sky130_ef_sc_hd__decap_12
XFILLER_1_337 VPWR VGND VPWR VGND sky130_ef_sc_hd__decap_12
XFILLER_4_197 VPWR VGND VPWR VGND sky130_ef_sc_hd__decap_12
XFILLER_10_403 VGND VGND VPWR VPWR sky130_fd_sc_hd__decap_3
XFILLER_1_189 VPWR VGND VPWR VGND sky130_ef_sc_hd__decap_12
XFILLER_1_134 VPWR VGND VPWR VGND sky130_ef_sc_hd__decap_12
XTAP_TAPCELL_ROW_0_25 VGND VPWR sky130_fd_sc_hd__tapvpwrvgnd_1
XTAP_TAPCELL_ROW_0_36 VGND VPWR sky130_fd_sc_hd__tapvpwrvgnd_1
XFILLER_9_245 VGND VGND VPWR VPWR sky130_fd_sc_hd__fill_1
XFILLER_10_277 VGND VGND VPWR VPWR sky130_fd_sc_hd__decap_8
X_092_ SS4END[12] VGND VGND VPWR VPWR net98 sky130_fd_sc_hd__buf_1
XFILLER_1_69 VPWR VGND VPWR VGND sky130_ef_sc_hd__decap_12
XFILLER_10_23 VGND VGND VPWR VPWR sky130_fd_sc_hd__fill_1
XFILLER_10_89 VGND VGND VPWR VPWR sky130_fd_sc_hd__fill_1
X_075_ S4END[13] VGND VGND VPWR VPWR net81 sky130_fd_sc_hd__clkbuf_1
XTAP_TAPCELL_ROW_6_79 VGND VPWR sky130_fd_sc_hd__tapvpwrvgnd_1
XFILLER_7_321 VPWR VGND VPWR VGND sky130_ef_sc_hd__decap_12
XFILLER_7_57 VPWR VGND VPWR VGND sky130_ef_sc_hd__decap_12
X_058_ S2MID[6] VGND VGND VPWR VPWR net58 sky130_fd_sc_hd__clkbuf_1
XFILLER_7_24 VGND VGND VPWR VPWR sky130_fd_sc_hd__fill_1
XFILLER_8_129 VGND VGND VPWR VPWR sky130_fd_sc_hd__decap_8
XTAP_TAPCELL_ROW_3_58 VGND VPWR sky130_fd_sc_hd__tapvpwrvgnd_1
XTAP_TAPCELL_ROW_10_101 VGND VPWR sky130_fd_sc_hd__tapvpwrvgnd_1
XFILLER_1_349 VGND VGND VPWR VPWR sky130_fd_sc_hd__fill_1
XFILLER_0_393 VGND VGND VPWR VPWR sky130_fd_sc_hd__decap_4
XFILLER_1_146 VPWR VGND VPWR VGND sky130_ef_sc_hd__decap_12
XFILLER_1_113 VPWR VGND VPWR VGND sky130_ef_sc_hd__decap_12
XTAP_TAPCELL_ROW_0_26 VGND VPWR sky130_fd_sc_hd__tapvpwrvgnd_1
XTAP_TAPCELL_ROW_0_37 VGND VPWR sky130_fd_sc_hd__tapvpwrvgnd_1
XFILLER_9_279 VGND VGND VPWR VPWR sky130_fd_sc_hd__fill_1
X_091_ SS4END[13] VGND VGND VPWR VPWR net97 sky130_fd_sc_hd__buf_1
XFILLER_1_15 VPWR VGND VPWR VGND sky130_ef_sc_hd__decap_12
XPHY_EDGE_ROW_7_Left_19 VGND VGND VPWR VPWR sky130_fd_sc_hd__decap_3
XFILLER_10_46 VGND VGND VPWR VPWR sky130_fd_sc_hd__decap_8
X_074_ S4END[14] VGND VGND VPWR VPWR net80 sky130_fd_sc_hd__buf_1
XANTENNA_30 S2MID[7] VGND VGND VPWR VPWR sky130_fd_sc_hd__diode_2
XFILLER_11_362 VGND VGND VPWR VPWR sky130_fd_sc_hd__fill_2
XFILLER_7_333 VGND VGND VPWR VPWR sky130_fd_sc_hd__decap_3