* NGSPICE file created from S_term_EF_SRAM.ext - technology: sky130A

* Black-box entry subcircuit for sky130_ef_sc_hd__decap_12 abstract view
.subckt sky130_ef_sc_hd__decap_12 VPWR VGND VPB VNB
.ends

* Black-box entry subcircuit for sky130_fd_sc_hd__clkbuf_1 abstract view
.subckt sky130_fd_sc_hd__clkbuf_1 A VGND VNB VPB VPWR X
.ends

* Black-box entry subcircuit for sky130_fd_sc_hd__decap_4 abstract view
.subckt sky130_fd_sc_hd__decap_4 VGND VNB VPB VPWR
.ends

* Black-box entry subcircuit for sky130_fd_sc_hd__decap_3 abstract view
.subckt sky130_fd_sc_hd__decap_3 VGND VNB VPB VPWR
.ends

* Black-box entry subcircuit for sky130_fd_sc_hd__fill_1 abstract view
.subckt sky130_fd_sc_hd__fill_1 VGND VNB VPB VPWR
.ends

* Black-box entry subcircuit for sky130_fd_sc_hd__decap_6 abstract view
.subckt sky130_fd_sc_hd__decap_6 VGND VNB VPB VPWR
.ends

* Black-box entry subcircuit for sky130_fd_sc_hd__diode_2 abstract view
.subckt sky130_fd_sc_hd__diode_2 DIODE VGND VNB VPB VPWR
.ends

* Black-box entry subcircuit for sky130_fd_sc_hd__buf_2 abstract view
.subckt sky130_fd_sc_hd__buf_2 A VGND VNB VPB VPWR X
.ends

* Black-box entry subcircuit for sky130_fd_sc_hd__tapvpwrvgnd_1 abstract view
.subckt sky130_fd_sc_hd__tapvpwrvgnd_1 VGND VPWR
.ends

* Black-box entry subcircuit for sky130_fd_sc_hd__fill_2 abstract view
.subckt sky130_fd_sc_hd__fill_2 VGND VNB VPB VPWR
.ends

* Black-box entry subcircuit for sky130_fd_sc_hd__buf_1 abstract view
.subckt sky130_fd_sc_hd__buf_1 A VGND VNB VPB VPWR X
.ends

* Black-box entry subcircuit for sky130_fd_sc_hd__decap_8 abstract view
.subckt sky130_fd_sc_hd__decap_8 VGND VNB VPB VPWR
.ends

.subckt S_term_EF_SRAM FrameData[0] FrameData[10] FrameData[11] FrameData[12] FrameData[13]
+ FrameData[14] FrameData[15] FrameData[16] FrameData[17] FrameData[18] FrameData[19]
+ FrameData[1] FrameData[20] FrameData[21] FrameData[22] FrameData[23] FrameData[24]
+ FrameData[25] FrameData[26] FrameData[27] FrameData[28] FrameData[29] FrameData[2]
+ FrameData[30] FrameData[31] FrameData[3] FrameData[4] FrameData[5] FrameData[6]
+ FrameData[7] FrameData[8] FrameData[9] FrameData_O[0] FrameData_O[10] FrameData_O[11]
+ FrameData_O[12] FrameData_O[13] FrameData_O[14] FrameData_O[15] FrameData_O[16]
+ FrameData_O[17] FrameData_O[18] FrameData_O[19] FrameData_O[1] FrameData_O[20] FrameData_O[21]
+ FrameData_O[22] FrameData_O[23] FrameData_O[24] FrameData_O[25] FrameData_O[26]
+ FrameData_O[27] FrameData_O[28] FrameData_O[29] FrameData_O[2] FrameData_O[30] FrameData_O[31]
+ FrameData_O[3] FrameData_O[4] FrameData_O[5] FrameData_O[6] FrameData_O[7] FrameData_O[8]
+ FrameData_O[9] FrameStrobe[0] FrameStrobe[10] FrameStrobe[11] FrameStrobe[12] FrameStrobe[13]
+ FrameStrobe[14] FrameStrobe[15] FrameStrobe[16] FrameStrobe[17] FrameStrobe[18]
+ FrameStrobe[19] FrameStrobe[1] FrameStrobe[2] FrameStrobe[3] FrameStrobe[4] FrameStrobe[5]
+ FrameStrobe[6] FrameStrobe[7] FrameStrobe[8] FrameStrobe[9] FrameStrobe_O[0] FrameStrobe_O[10]
+ FrameStrobe_O[11] FrameStrobe_O[12] FrameStrobe_O[13] FrameStrobe_O[14] FrameStrobe_O[15]
+ FrameStrobe_O[16] FrameStrobe_O[17] FrameStrobe_O[18] FrameStrobe_O[19] FrameStrobe_O[1]
+ FrameStrobe_O[2] FrameStrobe_O[3] FrameStrobe_O[4] FrameStrobe_O[5] FrameStrobe_O[6]
+ FrameStrobe_O[7] FrameStrobe_O[8] FrameStrobe_O[9] N1BEG[0] N1BEG[1] N1BEG[2] N1BEG[3]
+ N2BEG[0] N2BEG[1] N2BEG[2] N2BEG[3] N2BEG[4] N2BEG[5] N2BEG[6] N2BEG[7] N2BEGb[0]
+ N2BEGb[1] N2BEGb[2] N2BEGb[3] N2BEGb[4] N2BEGb[5] N2BEGb[6] N2BEGb[7] N4BEG[0] N4BEG[10]
+ N4BEG[11] N4BEG[12] N4BEG[13] N4BEG[14] N4BEG[15] N4BEG[1] N4BEG[2] N4BEG[3] N4BEG[4]
+ N4BEG[5] N4BEG[6] N4BEG[7] N4BEG[8] N4BEG[9] S1END[0] S1END[1] S1END[2] S1END[3]
+ S2END[0] S2END[1] S2END[2] S2END[3] S2END[4] S2END[5] S2END[6] S2END[7] S2MID[0]
+ S2MID[1] S2MID[2] S2MID[3] S2MID[4] S2MID[5] S2MID[6] S2MID[7] S4END[0] S4END[10]
+ S4END[11] S4END[12] S4END[13] S4END[14] S4END[15] S4END[1] S4END[2] S4END[3] S4END[4]
+ S4END[5] S4END[6] S4END[7] S4END[8] S4END[9] UserCLK UserCLKo VGND VPWR
XFILLER_9_137 VPWR VGND VPWR VGND sky130_ef_sc_hd__decap_12
X_83_ S4END[4] VGND VGND VPWR VPWR net75 sky130_fd_sc_hd__clkbuf_1
XFILLER_8_181 VGND VGND VPWR VPWR sky130_fd_sc_hd__decap_4
XPHY_EDGE_ROW_0_Left_12 VGND VGND VPWR VPWR sky130_fd_sc_hd__decap_3
X_66_ S2END[5] VGND VGND VPWR VPWR net67 sky130_fd_sc_hd__clkbuf_1
XFILLER_9_55 VGND VGND VPWR VPWR sky130_fd_sc_hd__fill_1
XFILLER_0_57 VPWR VGND VPWR VGND sky130_ef_sc_hd__decap_12
X_49_ FrameStrobe[17] VGND VGND VPWR VPWR net41 sky130_fd_sc_hd__clkbuf_1
XFILLER_7_279 VGND VGND VPWR VPWR sky130_fd_sc_hd__fill_1
XFILLER_4_227 VGND VGND VPWR VPWR sky130_fd_sc_hd__decap_6
XFILLER_4_249 VGND VGND VPWR VPWR sky130_fd_sc_hd__decap_3
XANTENNA_5 FrameData[18] VGND VGND VPWR VPWR sky130_fd_sc_hd__diode_2
XFILLER_3_293 VPWR VGND VPWR VGND sky130_ef_sc_hd__decap_12
Xoutput75 net75 VGND VGND VPWR VPWR N4BEG[11] sky130_fd_sc_hd__buf_2
Xoutput86 net86 VGND VGND VPWR VPWR N4BEG[7] sky130_fd_sc_hd__buf_2
Xoutput64 net64 VGND VGND VPWR VPWR N2BEG[7] sky130_fd_sc_hd__buf_2
Xoutput20 net20 VGND VGND VPWR VPWR FrameData_O[27] sky130_fd_sc_hd__buf_2
Xoutput42 net42 VGND VGND VPWR VPWR FrameStrobe_O[18] sky130_fd_sc_hd__buf_2
Xoutput53 net53 VGND VGND VPWR VPWR N1BEG[0] sky130_fd_sc_hd__buf_2
Xoutput7 net7 VGND VGND VPWR VPWR FrameData_O[15] sky130_fd_sc_hd__buf_2
XTAP_TAPCELL_ROW_2_46 VGND VPWR sky130_fd_sc_hd__tapvpwrvgnd_1
Xoutput31 net31 VGND VGND VPWR VPWR FrameData_O[8] sky130_fd_sc_hd__buf_2
XFILLER_10_307 VGND VGND VPWR VPWR sky130_fd_sc_hd__fill_1
XFILLER_9_149 VPWR VGND VPWR VGND sky130_ef_sc_hd__decap_12
XFILLER_9_105 VGND VGND VPWR VPWR sky130_fd_sc_hd__decap_6
XFILLER_3_57 VPWR VGND VPWR VGND sky130_ef_sc_hd__decap_12
XFILLER_8_160 VGND VGND VPWR VPWR sky130_fd_sc_hd__decap_4
X_82_ S4END[5] VGND VGND VPWR VPWR net74 sky130_fd_sc_hd__clkbuf_1
XTAP_TAPCELL_ROW_8_78 VGND VPWR sky130_fd_sc_hd__tapvpwrvgnd_1
X_65_ S2END[6] VGND VGND VPWR VPWR net66 sky130_fd_sc_hd__clkbuf_1
XFILLER_0_69 VPWR VGND VPWR VGND sky130_ef_sc_hd__decap_12
XFILLER_2_166 VGND VGND VPWR VPWR sky130_fd_sc_hd__fill_1
X_48_ FrameStrobe[16] VGND VGND VPWR VPWR net40 sky130_fd_sc_hd__clkbuf_1
XFILLER_11_221 VGND VGND VPWR VPWR sky130_fd_sc_hd__decap_3
XFILLER_7_225 VGND VGND VPWR VPWR sky130_fd_sc_hd__decap_3
XANTENNA_6 FrameData[1] VGND VGND VPWR VPWR sky130_fd_sc_hd__diode_2
XFILLER_3_261 VPWR VGND VPWR VGND sky130_ef_sc_hd__decap_12
XPHY_EDGE_ROW_6_Right_6 VGND VGND VPWR VPWR sky130_fd_sc_hd__decap_3
Xoutput43 net43 VGND VGND VPWR VPWR FrameStrobe_O[19] sky130_fd_sc_hd__buf_2
Xoutput76 net76 VGND VGND VPWR VPWR N4BEG[12] sky130_fd_sc_hd__buf_2
Xoutput54 net54 VGND VGND VPWR VPWR N1BEG[1] sky130_fd_sc_hd__buf_2
Xoutput21 net21 VGND VGND VPWR VPWR FrameData_O[28] sky130_fd_sc_hd__buf_2
Xoutput87 net87 VGND VGND VPWR VPWR N4BEG[8] sky130_fd_sc_hd__buf_2
Xoutput65 net65 VGND VGND VPWR VPWR N2BEGb[0] sky130_fd_sc_hd__buf_2
Xoutput8 net8 VGND VGND VPWR VPWR FrameData_O[16] sky130_fd_sc_hd__buf_2
Xoutput10 net10 VGND VGND VPWR VPWR FrameData_O[18] sky130_fd_sc_hd__buf_2
XFILLER_0_253 VPWR VGND VPWR VGND sky130_ef_sc_hd__decap_12
XTAP_TAPCELL_ROW_2_47 VGND VPWR sky130_fd_sc_hd__tapvpwrvgnd_1
Xoutput32 net32 VGND VGND VPWR VPWR FrameData_O[9] sky130_fd_sc_hd__buf_2
X_81_ S4END[6] VGND VGND VPWR VPWR net88 sky130_fd_sc_hd__clkbuf_1
XFILLER_3_69 VPWR VGND VPWR VGND sky130_ef_sc_hd__decap_12
XFILLER_10_116 VGND VGND VPWR VPWR sky130_fd_sc_hd__fill_2
XTAP_TAPCELL_ROW_11_100 VGND VPWR sky130_fd_sc_hd__tapvpwrvgnd_1
XTAP_TAPCELL_ROW_8_79 VGND VPWR sky130_fd_sc_hd__tapvpwrvgnd_1
X_64_ S2END[7] VGND VGND VPWR VPWR net65 sky130_fd_sc_hd__clkbuf_1
XFILLER_0_15 VPWR VGND VPWR VGND sky130_ef_sc_hd__decap_12
XFILLER_2_145 VGND VGND VPWR VPWR sky130_fd_sc_hd__fill_1
XFILLER_3_3 VPWR VGND VPWR VGND sky130_ef_sc_hd__decap_12
XFILLER_9_57 VPWR VGND VPWR VGND sky130_ef_sc_hd__decap_12
X_47_ FrameStrobe[15] VGND VGND VPWR VPWR net39 sky130_fd_sc_hd__clkbuf_1
XFILLER_11_277 VGND VGND VPWR VPWR sky130_fd_sc_hd__decap_3
XANTENNA_7 FrameData[20] VGND VGND VPWR VPWR sky130_fd_sc_hd__diode_2
XFILLER_3_273 VGND VGND VPWR VPWR sky130_fd_sc_hd__decap_6
XFILLER_6_69 VGND VGND VPWR VPWR sky130_fd_sc_hd__fill_2
Xoutput44 net44 VGND VGND VPWR VPWR FrameStrobe_O[1] sky130_fd_sc_hd__buf_2
Xoutput33 net33 VGND VGND VPWR VPWR FrameStrobe_O[0] sky130_fd_sc_hd__buf_2
Xoutput77 net77 VGND VGND VPWR VPWR N4BEG[13] sky130_fd_sc_hd__buf_2
Xoutput88 net88 VGND VGND VPWR VPWR N4BEG[9] sky130_fd_sc_hd__buf_2
Xoutput66 net66 VGND VGND VPWR VPWR N2BEGb[1] sky130_fd_sc_hd__buf_2
Xoutput55 net55 VGND VGND VPWR VPWR N1BEG[2] sky130_fd_sc_hd__buf_2
Xoutput22 net22 VGND VGND VPWR VPWR FrameData_O[29] sky130_fd_sc_hd__buf_2
Xoutput11 net11 VGND VGND VPWR VPWR FrameData_O[19] sky130_fd_sc_hd__buf_2
Xoutput9 net9 VGND VGND VPWR VPWR FrameData_O[17] sky130_fd_sc_hd__buf_2
XFILLER_0_265 VPWR VGND VPWR VGND sky130_ef_sc_hd__decap_12
XFILLER_0_221 VGND VGND VPWR VPWR sky130_fd_sc_hd__decap_3
XFILLER_8_321 VGND VGND VPWR VPWR sky130_fd_sc_hd__decap_6
XFILLER_8_195 VGND VGND VPWR VPWR sky130_fd_sc_hd__fill_1
X_80_ S4END[7] VGND VGND VPWR VPWR net87 sky130_fd_sc_hd__clkbuf_1
XFILLER_3_15 VPWR VGND VPWR VGND sky130_ef_sc_hd__decap_12
XFILLER_2_305 VGND VGND VPWR VPWR sky130_fd_sc_hd__decap_3
XTAP_TAPCELL_ROW_11_101 VGND VPWR sky130_fd_sc_hd__tapvpwrvgnd_1
X_63_ S2MID[0] VGND VGND VPWR VPWR net64 sky130_fd_sc_hd__clkbuf_1
XFILLER_0_27 VGND VGND VPWR VPWR sky130_fd_sc_hd__fill_1
XPHY_EDGE_ROW_4_Left_16 VGND VGND VPWR VPWR sky130_fd_sc_hd__decap_3
XFILLER_9_69 VPWR VGND VPWR VGND sky130_ef_sc_hd__decap_12
X_46_ FrameStrobe[14] VGND VGND VPWR VPWR net38 sky130_fd_sc_hd__clkbuf_1
XFILLER_7_205 VPWR VGND VPWR VGND sky130_ef_sc_hd__decap_12
X_29_ FrameData[29] VGND VGND VPWR VPWR net22 sky130_fd_sc_hd__buf_1
XFILLER_1_81 VPWR VGND VPWR VGND sky130_ef_sc_hd__decap_12
XTAP_TAPCELL_ROW_10_90 VGND VPWR sky130_fd_sc_hd__tapvpwrvgnd_1
XANTENNA_8 FrameData[22] VGND VGND VPWR VPWR sky130_fd_sc_hd__diode_2
XFILLER_6_15 VPWR VGND VPWR VGND sky130_ef_sc_hd__decap_12
Xoutput45 net45 VGND VGND VPWR VPWR FrameStrobe_O[2] sky130_fd_sc_hd__buf_2
Xoutput89 net89 VGND VGND VPWR VPWR UserCLKo sky130_fd_sc_hd__buf_1
Xoutput78 net78 VGND VGND VPWR VPWR N4BEG[14] sky130_fd_sc_hd__buf_2
Xoutput67 net67 VGND VGND VPWR VPWR N2BEGb[2] sky130_fd_sc_hd__buf_2
Xoutput56 net56 VGND VGND VPWR VPWR N1BEG[3] sky130_fd_sc_hd__buf_2
Xoutput34 net34 VGND VGND VPWR VPWR FrameStrobe_O[10] sky130_fd_sc_hd__buf_2
Xoutput12 net12 VGND VGND VPWR VPWR FrameData_O[1] sky130_fd_sc_hd__buf_2
Xoutput23 net23 VGND VGND VPWR VPWR FrameData_O[2] sky130_fd_sc_hd__buf_2
XFILLER_0_277 VGND VGND VPWR VPWR sky130_fd_sc_hd__decap_3
XFILLER_11_3 VPWR VGND VPWR VGND sky130_ef_sc_hd__decap_12
XFILLER_3_27 VPWR VGND VPWR VGND sky130_ef_sc_hd__decap_12
XFILLER_5_325 VGND VGND VPWR VPWR sky130_fd_sc_hd__decap_3
XFILLER_8_185 VGND VGND VPWR VPWR sky130_fd_sc_hd__fill_1
XFILLER_8_141 VGND VGND VPWR VPWR sky130_fd_sc_hd__decap_3
XTAP_TAPCELL_ROW_11_102 VGND VPWR sky130_fd_sc_hd__tapvpwrvgnd_1
XFILLER_5_111 VGND VGND VPWR VPWR sky130_fd_sc_hd__fill_1
XFILLER_5_155 VPWR VGND VPWR VGND sky130_ef_sc_hd__decap_12
X_62_ S2MID[1] VGND VGND VPWR VPWR net63 sky130_fd_sc_hd__clkbuf_1
XFILLER_2_114 VGND VGND VPWR VPWR sky130_fd_sc_hd__fill_2
XFILLER_9_15 VPWR VGND VPWR VGND sky130_ef_sc_hd__decap_12
XFILLER_9_291 VPWR VGND VPWR VGND sky130_ef_sc_hd__decap_12
X_45_ FrameStrobe[13] VGND VGND VPWR VPWR net37 sky130_fd_sc_hd__clkbuf_1
XFILLER_7_217 VGND VGND VPWR VPWR sky130_fd_sc_hd__decap_6
X_28_ FrameData[28] VGND VGND VPWR VPWR net21 sky130_fd_sc_hd__buf_1
XFILLER_1_93 VPWR VGND VPWR VGND sky130_ef_sc_hd__decap_12
XTAP_TAPCELL_ROW_10_91 VGND VPWR sky130_fd_sc_hd__tapvpwrvgnd_1
XANTENNA_9 FrameData[23] VGND VGND VPWR VPWR sky130_fd_sc_hd__diode_2
XTAP_TAPCELL_ROW_6_70 VGND VPWR sky130_fd_sc_hd__tapvpwrvgnd_1
XFILLER_6_27 VGND VGND VPWR VPWR sky130_fd_sc_hd__fill_1
Xoutput35 net35 VGND VGND VPWR VPWR FrameStrobe_O[11] sky130_fd_sc_hd__buf_2
Xoutput46 net46 VGND VGND VPWR VPWR FrameStrobe_O[3] sky130_fd_sc_hd__buf_2
Xoutput24 net24 VGND VGND VPWR VPWR FrameData_O[30] sky130_fd_sc_hd__buf_2
Xoutput57 net57 VGND VGND VPWR VPWR N2BEG[0] sky130_fd_sc_hd__buf_2
Xoutput13 net13 VGND VGND VPWR VPWR FrameData_O[20] sky130_fd_sc_hd__buf_2
Xoutput79 net79 VGND VGND VPWR VPWR N4BEG[15] sky130_fd_sc_hd__buf_2
Xoutput68 net68 VGND VGND VPWR VPWR N2BEGb[3] sky130_fd_sc_hd__buf_2
XFILLER_3_39 VPWR VGND VPWR VGND sky130_ef_sc_hd__decap_12
XFILLER_5_337 VGND VGND VPWR VPWR sky130_fd_sc_hd__fill_2
XFILLER_8_197 VGND VGND VPWR VPWR sky130_fd_sc_hd__fill_1
XTAP_TAPCELL_ROW_11_103 VGND VPWR sky130_fd_sc_hd__tapvpwrvgnd_1
XFILLER_2_329 VGND VGND VPWR VPWR sky130_fd_sc_hd__fill_2
XFILLER_5_167 VGND VGND VPWR VPWR sky130_fd_sc_hd__fill_1
X_61_ S2MID[2] VGND VGND VPWR VPWR net62 sky130_fd_sc_hd__clkbuf_1
XFILLER_9_27 VPWR VGND VPWR VGND sky130_ef_sc_hd__decap_12
XFILLER_0_29 VPWR VGND VPWR VGND sky130_ef_sc_hd__decap_12
XFILLER_2_126 VPWR VGND VPWR VGND sky130_ef_sc_hd__decap_12
XFILLER_9_281 VGND VGND VPWR VPWR sky130_fd_sc_hd__decap_4
X_44_ FrameStrobe[12] VGND VGND VPWR VPWR net36 sky130_fd_sc_hd__clkbuf_1
XFILLER_1_181 VPWR VGND VPWR VGND sky130_ef_sc_hd__decap_12
XFILLER_11_225 VPWR VGND VPWR VGND sky130_ef_sc_hd__decap_12
XFILLER_1_3 VPWR VGND VPWR VGND sky130_ef_sc_hd__decap_12
X_27_ FrameData[27] VGND VGND VPWR VPWR net20 sky130_fd_sc_hd__buf_1
XTAP_TAPCELL_ROW_10_92 VGND VPWR sky130_fd_sc_hd__tapvpwrvgnd_1
XFILLER_10_92 VGND VGND VPWR VPWR sky130_fd_sc_hd__fill_2
XTAP_TAPCELL_ROW_6_71 VGND VPWR sky130_fd_sc_hd__tapvpwrvgnd_1
Xoutput36 net36 VGND VGND VPWR VPWR FrameStrobe_O[12] sky130_fd_sc_hd__buf_2
Xoutput47 net47 VGND VGND VPWR VPWR FrameStrobe_O[4] sky130_fd_sc_hd__buf_2
Xoutput69 net69 VGND VGND VPWR VPWR N2BEGb[4] sky130_fd_sc_hd__buf_2
Xoutput58 net58 VGND VGND VPWR VPWR N2BEG[1] sky130_fd_sc_hd__buf_2
Xoutput14 net14 VGND VGND VPWR VPWR FrameData_O[21] sky130_fd_sc_hd__buf_2
Xoutput25 net25 VGND VGND VPWR VPWR FrameData_O[31] sky130_fd_sc_hd__buf_2
XFILLER_8_302 VGND VGND VPWR VPWR sky130_fd_sc_hd__decap_6
XFILLER_5_305 VPWR VGND VPWR VGND sky130_ef_sc_hd__decap_12
XTAP_TAPCELL_ROW_3_50 VGND VPWR sky130_fd_sc_hd__tapvpwrvgnd_1
XTAP_TAPCELL_ROW_11_104 VGND VPWR sky130_fd_sc_hd__tapvpwrvgnd_1
XFILLER_5_113 VPWR VGND VPWR VGND sky130_ef_sc_hd__decap_12
X_60_ S2MID[3] VGND VGND VPWR VPWR net61 sky130_fd_sc_hd__clkbuf_1
XFILLER_4_83 VGND VGND VPWR VPWR sky130_fd_sc_hd__fill_1
XFILLER_9_39 VPWR VGND VPWR VGND sky130_ef_sc_hd__decap_12
XFILLER_2_138 VGND VGND VPWR VPWR sky130_fd_sc_hd__fill_2
XFILLER_2_149 VGND VGND VPWR VPWR sky130_fd_sc_hd__fill_2
XFILLER_9_271 VGND VGND VPWR VPWR sky130_fd_sc_hd__fill_1
X_43_ FrameStrobe[11] VGND VGND VPWR VPWR net35 sky130_fd_sc_hd__clkbuf_1
XFILLER_1_193 VPWR VGND VPWR VGND sky130_ef_sc_hd__decap_12
XFILLER_11_237 VPWR VGND VPWR VGND sky130_ef_sc_hd__decap_12
X_26_ FrameData[26] VGND VGND VPWR VPWR net19 sky130_fd_sc_hd__clkbuf_1
XFILLER_1_51 VGND VGND VPWR VPWR sky130_fd_sc_hd__decap_4
XTAP_TAPCELL_ROW_10_93 VGND VPWR sky130_fd_sc_hd__tapvpwrvgnd_1
XFILLER_6_29 VPWR VGND VPWR VGND sky130_ef_sc_hd__decap_12
X_09_ FrameData[9] VGND VGND VPWR VPWR net32 sky130_fd_sc_hd__buf_1
Xoutput37 net37 VGND VGND VPWR VPWR FrameStrobe_O[13] sky130_fd_sc_hd__buf_2
Xoutput48 net48 VGND VGND VPWR VPWR FrameStrobe_O[5] sky130_fd_sc_hd__buf_2
Xoutput59 net59 VGND VGND VPWR VPWR N2BEG[2] sky130_fd_sc_hd__buf_2
Xoutput15 net15 VGND VGND VPWR VPWR FrameData_O[22] sky130_fd_sc_hd__buf_2
Xoutput26 net26 VGND VGND VPWR VPWR FrameData_O[3] sky130_fd_sc_hd__buf_2
XFILLER_0_225 VPWR VGND VPWR VGND sky130_ef_sc_hd__decap_12
XPHY_EDGE_ROW_1_Right_1 VGND VGND VPWR VPWR sky130_fd_sc_hd__decap_3
XFILLER_5_317 VGND VGND VPWR VPWR sky130_fd_sc_hd__decap_8
XFILLER_8_177 VGND VGND VPWR VPWR sky130_fd_sc_hd__fill_1
XFILLER_8_155 VGND VGND VPWR VPWR sky130_fd_sc_hd__fill_2
XTAP_TAPCELL_ROW_3_51 VGND VPWR sky130_fd_sc_hd__tapvpwrvgnd_1
XFILLER_2_309 VPWR VGND VPWR VGND sky130_ef_sc_hd__decap_12
XTAP_TAPCELL_ROW_11_105 VGND VPWR sky130_fd_sc_hd__tapvpwrvgnd_1
XFILLER_5_125 VPWR VGND VPWR VGND sky130_ef_sc_hd__decap_12
XFILLER_5_169 VPWR VGND VPWR VGND sky130_ef_sc_hd__decap_12
XTAP_TAPCELL_ROW_0_30 VGND VPWR sky130_fd_sc_hd__tapvpwrvgnd_1
XFILLER_1_161 VGND VGND VPWR VPWR sky130_fd_sc_hd__decap_6
X_42_ FrameStrobe[10] VGND VGND VPWR VPWR net34 sky130_fd_sc_hd__clkbuf_1
XFILLER_6_253 VPWR VGND VPWR VGND sky130_ef_sc_hd__decap_12
X_25_ FrameData[25] VGND VGND VPWR VPWR net18 sky130_fd_sc_hd__clkbuf_1
XTAP_TAPCELL_ROW_10_94 VGND VPWR sky130_fd_sc_hd__tapvpwrvgnd_1
XFILLER_10_83 VGND VGND VPWR VPWR sky130_fd_sc_hd__fill_1
XFILLER_10_50 VGND VGND VPWR VPWR sky130_fd_sc_hd__decap_4
XPHY_EDGE_ROW_11_Left_23 VGND VGND VPWR VPWR sky130_fd_sc_hd__decap_3
X_08_ FrameData[8] VGND VGND VPWR VPWR net31 sky130_fd_sc_hd__buf_1
Xoutput16 net16 VGND VGND VPWR VPWR FrameData_O[23] sky130_fd_sc_hd__buf_2
Xoutput38 net38 VGND VGND VPWR VPWR FrameStrobe_O[14] sky130_fd_sc_hd__buf_2
Xoutput49 net49 VGND VGND VPWR VPWR FrameStrobe_O[6] sky130_fd_sc_hd__buf_2
Xoutput27 net27 VGND VGND VPWR VPWR FrameData_O[4] sky130_fd_sc_hd__buf_2
XFILLER_0_237 VPWR VGND VPWR VGND sky130_ef_sc_hd__decap_12
XFILLER_8_189 VGND VGND VPWR VPWR sky130_fd_sc_hd__decap_6
XTAP_TAPCELL_ROW_3_52 VGND VPWR sky130_fd_sc_hd__tapvpwrvgnd_1
XTAP_TAPCELL_ROW_11_106 VGND VPWR sky130_fd_sc_hd__tapvpwrvgnd_1
XFILLER_5_137 VPWR VGND VPWR VGND sky130_ef_sc_hd__decap_12
XFILLER_4_41 VPWR VGND VPWR VGND sky130_ef_sc_hd__decap_12
XFILLER_4_85 VPWR VGND VPWR VGND sky130_ef_sc_hd__decap_12
XFILLER_2_107 VGND VGND VPWR VPWR sky130_fd_sc_hd__fill_2
XTAP_TAPCELL_ROW_9_84 VGND VPWR sky130_fd_sc_hd__tapvpwrvgnd_1
XTAP_TAPCELL_ROW_0_31 VGND VPWR sky130_fd_sc_hd__tapvpwrvgnd_1
X_41_ FrameStrobe[9] VGND VGND VPWR VPWR net52 sky130_fd_sc_hd__clkbuf_1
X_24_ FrameData[24] VGND VGND VPWR VPWR net17 sky130_fd_sc_hd__clkbuf_1
XFILLER_6_265 VPWR VGND VPWR VGND sky130_ef_sc_hd__decap_12
XTAP_TAPCELL_ROW_10_95 VGND VPWR sky130_fd_sc_hd__tapvpwrvgnd_1
XFILLER_3_213 VGND VGND VPWR VPWR sky130_fd_sc_hd__fill_2
XFILLER_3_279 VGND VGND VPWR VPWR sky130_fd_sc_hd__fill_1
Xoutput17 net17 VGND VGND VPWR VPWR FrameData_O[24] sky130_fd_sc_hd__buf_2
Xoutput39 net39 VGND VGND VPWR VPWR FrameStrobe_O[15] sky130_fd_sc_hd__buf_2
Xoutput28 net28 VGND VGND VPWR VPWR FrameData_O[5] sky130_fd_sc_hd__buf_2
XFILLER_0_249 VGND VGND VPWR VPWR sky130_fd_sc_hd__decap_3
X_07_ FrameData[7] VGND VGND VPWR VPWR net30 sky130_fd_sc_hd__buf_1
XFILLER_7_63 VGND VGND VPWR VPWR sky130_fd_sc_hd__decap_8
XFILLER_7_85 VGND VGND VPWR VPWR sky130_fd_sc_hd__fill_1
XTAP_TAPCELL_ROW_3_53 VGND VPWR sky130_fd_sc_hd__tapvpwrvgnd_1
XTAP_TAPCELL_ROW_11_107 VGND VPWR sky130_fd_sc_hd__tapvpwrvgnd_1
XFILLER_5_149 VGND VGND VPWR VPWR sky130_fd_sc_hd__decap_3
XFILLER_4_53 VPWR VGND VPWR VGND sky130_ef_sc_hd__decap_12
XFILLER_4_97 VPWR VGND VPWR VGND sky130_ef_sc_hd__decap_12
XTAP_TAPCELL_ROW_0_32 VGND VPWR sky130_fd_sc_hd__tapvpwrvgnd_1
X_40_ FrameStrobe[8] VGND VGND VPWR VPWR net51 sky130_fd_sc_hd__clkbuf_1
XFILLER_9_285 VGND VGND VPWR VPWR sky130_fd_sc_hd__fill_1
XFILLER_9_252 VGND VGND VPWR VPWR sky130_fd_sc_hd__fill_2
XFILLER_9_230 VGND VGND VPWR VPWR sky130_fd_sc_hd__decap_8
XTAP_TAPCELL_ROW_9_85 VGND VPWR sky130_fd_sc_hd__tapvpwrvgnd_1
XFILLER_10_251 VGND VGND VPWR VPWR sky130_fd_sc_hd__fill_1
X_23_ FrameData[23] VGND VGND VPWR VPWR net16 sky130_fd_sc_hd__buf_1
XFILLER_6_277 VPWR VGND VPWR VGND sky130_ef_sc_hd__decap_12
XFILLER_10_85 VGND VGND VPWR VPWR sky130_fd_sc_hd__decap_3
XFILLER_10_74 VGND VGND VPWR VPWR sky130_fd_sc_hd__decap_4
XFILLER_3_225 VPWR VGND VPWR VGND sky130_ef_sc_hd__decap_12
Xoutput18 net18 VGND VGND VPWR VPWR FrameData_O[25] sky130_fd_sc_hd__buf_2
X_06_ FrameData[6] VGND VGND VPWR VPWR net29 sky130_fd_sc_hd__buf_1
Xoutput29 net29 VGND VGND VPWR VPWR FrameData_O[6] sky130_fd_sc_hd__buf_2
XPHY_EDGE_ROW_5_Right_5 VGND VGND VPWR VPWR sky130_fd_sc_hd__decap_3
XFILLER_8_147 VGND VGND VPWR VPWR sky130_fd_sc_hd__decap_8
XFILLER_4_65 VPWR VGND VPWR VGND sky130_ef_sc_hd__decap_12
XTAP_TAPCELL_ROW_0_33 VGND VPWR sky130_fd_sc_hd__tapvpwrvgnd_1
XTAP_TAPCELL_ROW_9_86 VGND VPWR sky130_fd_sc_hd__tapvpwrvgnd_1
X_22_ FrameData[22] VGND VGND VPWR VPWR net15 sky130_fd_sc_hd__clkbuf_1
XFILLER_6_289 VPWR VGND VPWR VGND sky130_ef_sc_hd__decap_12
XFILLER_1_55 VGND VGND VPWR VPWR sky130_fd_sc_hd__fill_1
XFILLER_3_237 VPWR VGND VPWR VGND sky130_ef_sc_hd__decap_12
X_05_ FrameData[5] VGND VGND VPWR VPWR net28 sky130_fd_sc_hd__buf_1
Xoutput19 net19 VGND VGND VPWR VPWR FrameData_O[26] sky130_fd_sc_hd__buf_2
XPHY_EDGE_ROW_11_Right_11 VGND VGND VPWR VPWR sky130_fd_sc_hd__decap_3
XFILLER_8_137 VGND VGND VPWR VPWR sky130_fd_sc_hd__decap_3
XFILLER_4_321 VGND VGND VPWR VPWR sky130_fd_sc_hd__decap_8
XFILLER_7_181 VPWR VGND VPWR VGND sky130_ef_sc_hd__decap_12
XFILLER_5_107 VGND VGND VPWR VPWR sky130_fd_sc_hd__decap_4
XFILLER_4_77 VGND VGND VPWR VPWR sky130_fd_sc_hd__decap_6
XFILLER_4_195 VGND VGND VPWR VPWR sky130_fd_sc_hd__fill_1
XTAP_TAPCELL_ROW_9_87 VGND VPWR sky130_fd_sc_hd__tapvpwrvgnd_1
XTAP_TAPCELL_ROW_0_34 VGND VPWR sky130_fd_sc_hd__tapvpwrvgnd_1
XFILLER_11_209 VPWR VGND VPWR VGND sky130_ef_sc_hd__decap_12
XPHY_EDGE_ROW_3_Left_15 VGND VGND VPWR VPWR sky130_fd_sc_hd__decap_3
XFILLER_10_275 VGND VGND VPWR VPWR sky130_fd_sc_hd__decap_8
XFILLER_10_253 VPWR VGND VPWR VGND sky130_ef_sc_hd__decap_12
XFILLER_6_224 VPWR VGND VPWR VGND sky130_ef_sc_hd__decap_12
X_21_ FrameData[21] VGND VGND VPWR VPWR net14 sky130_fd_sc_hd__buf_1
XFILLER_10_98 VGND VGND VPWR VPWR sky130_fd_sc_hd__decap_8
XFILLER_10_65 VGND VGND VPWR VPWR sky130_fd_sc_hd__decap_4
XFILLER_10_54 VGND VGND VPWR VPWR sky130_fd_sc_hd__fill_1
XFILLER_3_205 VGND VGND VPWR VPWR sky130_fd_sc_hd__decap_8
XFILLER_3_249 VPWR VGND VPWR VGND sky130_ef_sc_hd__decap_12
X_04_ FrameData[4] VGND VGND VPWR VPWR net27 sky130_fd_sc_hd__buf_1
XTAP_TAPCELL_ROW_6_66 VGND VPWR sky130_fd_sc_hd__tapvpwrvgnd_1
XFILLER_7_193 VPWR VGND VPWR VGND sky130_ef_sc_hd__decap_12
XFILLER_1_325 VGND VGND VPWR VPWR sky130_fd_sc_hd__decap_3
XFILLER_4_141 VPWR VGND VPWR VGND sky130_ef_sc_hd__decap_12
XTAP_TAPCELL_ROW_9_88 VGND VPWR sky130_fd_sc_hd__tapvpwrvgnd_1
XFILLER_9_277 VGND VGND VPWR VPWR sky130_fd_sc_hd__decap_3
XFILLER_9_244 VGND VGND VPWR VPWR sky130_fd_sc_hd__decap_8
XFILLER_8_3 VPWR VGND VPWR VGND sky130_ef_sc_hd__decap_12
XFILLER_1_111 VGND VGND VPWR VPWR sky130_fd_sc_hd__fill_1
XTAP_TAPCELL_ROW_0_24 VGND VPWR sky130_fd_sc_hd__tapvpwrvgnd_1
XTAP_TAPCELL_ROW_0_35 VGND VPWR sky130_fd_sc_hd__tapvpwrvgnd_1
XFILLER_10_287 VGND VGND VPWR VPWR sky130_fd_sc_hd__decap_8
XFILLER_10_265 VGND VGND VPWR VPWR sky130_fd_sc_hd__decap_6
XFILLER_10_221 VPWR VGND VPWR VGND sky130_ef_sc_hd__decap_12
XFILLER_6_236 VPWR VGND VPWR VGND sky130_ef_sc_hd__decap_12
X_20_ FrameData[20] VGND VGND VPWR VPWR net13 sky130_fd_sc_hd__buf_1
XFILLER_1_57 VPWR VGND VPWR VGND sky130_ef_sc_hd__decap_12
XFILLER_10_33 VGND VGND VPWR VPWR sky130_fd_sc_hd__fill_1
X_03_ FrameData[3] VGND VGND VPWR VPWR net26 sky130_fd_sc_hd__buf_1
XFILLER_2_261 VGND VGND VPWR VPWR sky130_fd_sc_hd__fill_2
XTAP_TAPCELL_ROW_6_67 VGND VPWR sky130_fd_sc_hd__tapvpwrvgnd_1
XFILLER_0_209 VPWR VGND VPWR VGND sky130_ef_sc_hd__decap_12
XFILLER_8_309 VPWR VGND VPWR VGND sky130_ef_sc_hd__decap_12
XFILLER_8_128 VGND VGND VPWR VPWR sky130_fd_sc_hd__decap_6
XFILLER_8_117 VGND VGND VPWR VPWR sky130_fd_sc_hd__decap_8
XFILLER_4_301 VGND VGND VPWR VPWR sky130_fd_sc_hd__decap_6
XPHY_EDGE_ROW_9_Right_9 VGND VGND VPWR VPWR sky130_fd_sc_hd__decap_3
XFILLER_7_161 VGND VGND VPWR VPWR sky130_fd_sc_hd__decap_6
XFILLER_1_337 VGND VGND VPWR VPWR sky130_fd_sc_hd__fill_2
XFILLER_4_153 VPWR VGND VPWR VGND sky130_ef_sc_hd__decap_12
XFILLER_4_197 VGND VGND VPWR VPWR sky130_fd_sc_hd__decap_3
XTAP_TAPCELL_ROW_9_89 VGND VPWR sky130_fd_sc_hd__tapvpwrvgnd_1
XFILLER_1_167 VGND VGND VPWR VPWR sky130_fd_sc_hd__fill_1
XTAP_TAPCELL_ROW_0_25 VGND VPWR sky130_fd_sc_hd__tapvpwrvgnd_1
XFILLER_9_223 VGND VGND VPWR VPWR sky130_fd_sc_hd__fill_1
XFILLER_10_233 VPWR VGND VPWR VGND sky130_ef_sc_hd__decap_12
XFILLER_6_248 VGND VGND VPWR VPWR sky130_fd_sc_hd__decap_4
XFILLER_1_69 VPWR VGND VPWR VGND sky130_ef_sc_hd__decap_12
XFILLER_10_78 VGND VGND VPWR VPWR sky130_fd_sc_hd__fill_1
X_79_ S4END[8] VGND VGND VPWR VPWR net86 sky130_fd_sc_hd__clkbuf_1
XFILLER_3_218 VGND VGND VPWR VPWR sky130_fd_sc_hd__decap_6
XFILLER_5_281 VPWR VGND VPWR VGND sky130_ef_sc_hd__decap_12
XTAP_TAPCELL_ROW_6_68 VGND VPWR sky130_fd_sc_hd__tapvpwrvgnd_1
XFILLER_2_251 VGND VGND VPWR VPWR sky130_fd_sc_hd__fill_1
XFILLER_2_273 VPWR VGND VPWR VGND sky130_ef_sc_hd__decap_12
X_02_ FrameData[2] VGND VGND VPWR VPWR net23 sky130_fd_sc_hd__buf_1
XFILLER_7_321 VGND VGND VPWR VPWR sky130_fd_sc_hd__fill_2
XFILLER_7_57 VGND VGND VPWR VPWR sky130_fd_sc_hd__decap_3
XFILLER_8_107 VGND VGND VPWR VPWR sky130_fd_sc_hd__fill_1
XFILLER_1_305 VPWR VGND VPWR VGND sky130_ef_sc_hd__decap_12
XFILLER_4_121 VPWR VGND VPWR VGND sky130_ef_sc_hd__decap_12
XFILLER_4_165 VPWR VGND VPWR VGND sky130_ef_sc_hd__decap_12
XFILLER_1_113 VPWR VGND VPWR VGND sky130_ef_sc_hd__decap_12
XTAP_TAPCELL_ROW_0_26 VGND VPWR sky130_fd_sc_hd__tapvpwrvgnd_1
XFILLER_8_290 VPWR VGND VPWR VGND sky130_ef_sc_hd__decap_12
XFILLER_10_245 VGND VGND VPWR VPWR sky130_fd_sc_hd__decap_6
XFILLER_1_15 VPWR VGND VPWR VGND sky130_ef_sc_hd__decap_12
X_78_ S4END[9] VGND VGND VPWR VPWR net85 sky130_fd_sc_hd__clkbuf_1
XFILLER_5_293 VPWR VGND VPWR VGND sky130_ef_sc_hd__decap_12
XPHY_EDGE_ROW_7_Left_19 VGND VGND VPWR VPWR sky130_fd_sc_hd__decap_3
XTAP_TAPCELL_ROW_6_69 VGND VPWR sky130_fd_sc_hd__tapvpwrvgnd_1
X_01_ FrameData[1] VGND VGND VPWR VPWR net12 sky130_fd_sc_hd__buf_1
XFILLER_2_285 VPWR VGND VPWR VGND sky130_ef_sc_hd__decap_12
XFILLER_2_80 VGND VGND VPWR VPWR sky130_fd_sc_hd__decap_4
XPHY_EDGE_ROW_0_Right_0 VGND VGND VPWR VPWR sky130_fd_sc_hd__decap_3
XTAP_TAPCELL_ROW_3_48 VGND VPWR sky130_fd_sc_hd__tapvpwrvgnd_1
XFILLER_11_181 VPWR VGND VPWR VGND sky130_ef_sc_hd__decap_12
XFILLER_1_317 VGND VGND VPWR VPWR sky130_fd_sc_hd__decap_8
XFILLER_4_15 VPWR VGND VPWR VGND sky130_ef_sc_hd__decap_12
XFILLER_4_133 VGND VGND VPWR VPWR sky130_fd_sc_hd__decap_6
XFILLER_4_177 VPWR VGND VPWR VGND sky130_ef_sc_hd__decap_12
XFILLER_1_125 VPWR VGND VPWR VGND sky130_ef_sc_hd__decap_12
XTAP_TAPCELL_ROW_0_27 VGND VPWR sky130_fd_sc_hd__tapvpwrvgnd_1
XFILLER_9_225 VGND VGND VPWR VPWR sky130_fd_sc_hd__fill_2
XFILLER_1_169 VPWR VGND VPWR VGND sky130_ef_sc_hd__decap_12
XFILLER_1_27 VPWR VGND VPWR VGND sky130_ef_sc_hd__decap_12
XFILLER_6_3 VPWR VGND VPWR VGND sky130_ef_sc_hd__decap_12
X_77_ S4END[10] VGND VGND VPWR VPWR net84 sky130_fd_sc_hd__clkbuf_1
XFILLER_5_261 VPWR VGND VPWR VGND sky130_ef_sc_hd__decap_12
XFILLER_10_69 VGND VGND VPWR VPWR sky130_fd_sc_hd__fill_1
X_00_ FrameData[0] VGND VGND VPWR VPWR net1 sky130_fd_sc_hd__buf_1
XFILLER_2_253 VGND VGND VPWR VPWR sky130_fd_sc_hd__decap_8
XFILLER_2_297 VGND VGND VPWR VPWR sky130_fd_sc_hd__decap_8
XANTENNA_20 FrameData[5] VGND VGND VPWR VPWR sky130_fd_sc_hd__diode_2
XFILLER_7_301 VPWR VGND VPWR VGND sky130_ef_sc_hd__decap_12
XFILLER_7_15 VPWR VGND VPWR VGND sky130_ef_sc_hd__decap_12
XFILLER_7_48 VGND VGND VPWR VPWR sky130_fd_sc_hd__decap_8
XPHY_EDGE_ROW_10_Left_22 VGND VGND VPWR VPWR sky130_fd_sc_hd__decap_3
XTAP_TAPCELL_ROW_3_49 VGND VPWR sky130_fd_sc_hd__tapvpwrvgnd_1
XFILLER_11_193 VGND VGND VPWR VPWR sky130_fd_sc_hd__decap_3
XFILLER_4_27 VGND VGND VPWR VPWR sky130_fd_sc_hd__fill_1
XFILLER_4_189 VGND VGND VPWR VPWR sky130_fd_sc_hd__decap_6
XFILLER_9_259 VPWR VGND VPWR VGND sky130_ef_sc_hd__decap_12
XTAP_TAPCELL_ROW_0_28 VGND VPWR sky130_fd_sc_hd__tapvpwrvgnd_1
XFILLER_1_137 VPWR VGND VPWR VGND sky130_ef_sc_hd__decap_12
XFILLER_0_181 VPWR VGND VPWR VGND sky130_ef_sc_hd__decap_12
X_76_ S4END[11] VGND VGND VPWR VPWR net83 sky130_fd_sc_hd__clkbuf_1
XFILLER_1_39 VPWR VGND VPWR VGND sky130_ef_sc_hd__decap_12
XFILLER_5_273 VGND VGND VPWR VPWR sky130_fd_sc_hd__decap_6
XFILLER_10_59 VGND VGND VPWR VPWR sky130_fd_sc_hd__fill_2
XFILLER_10_15 VPWR VGND VPWR VGND sky130_ef_sc_hd__decap_12
XFILLER_2_221 VGND VGND VPWR VPWR sky130_fd_sc_hd__decap_4
XANTENNA_10 FrameData[24] VGND VGND VPWR VPWR sky130_fd_sc_hd__diode_2
XFILLER_2_60 VGND VGND VPWR VPWR sky130_fd_sc_hd__fill_1
XFILLER_2_93 VGND VGND VPWR VPWR sky130_fd_sc_hd__decap_6
XANTENNA_21 FrameData[6] VGND VGND VPWR VPWR sky130_fd_sc_hd__diode_2
X_59_ S2MID[4] VGND VGND VPWR VPWR net60 sky130_fd_sc_hd__clkbuf_1
XFILLER_7_313 VGND VGND VPWR VPWR sky130_fd_sc_hd__decap_8
XFILLER_7_27 VPWR VGND VPWR VGND sky130_ef_sc_hd__decap_12
XFILLER_9_238 VGND VGND VPWR VPWR sky130_fd_sc_hd__fill_1
XFILLER_9_205 VPWR VGND VPWR VGND sky130_ef_sc_hd__decap_12
XTAP_TAPCELL_ROW_0_29 VGND VPWR sky130_fd_sc_hd__tapvpwrvgnd_1
XFILLER_1_149 VPWR VGND VPWR VGND sky130_ef_sc_hd__decap_12
XFILLER_1_105 VGND VGND VPWR VPWR sky130_fd_sc_hd__decap_6
XFILLER_0_193 VGND VGND VPWR VPWR sky130_fd_sc_hd__decap_3
XFILLER_10_38 VGND VGND VPWR VPWR sky130_fd_sc_hd__decap_8
XFILLER_10_27 VGND VGND VPWR VPWR sky130_fd_sc_hd__fill_1
X_75_ S4END[12] VGND VGND VPWR VPWR net82 sky130_fd_sc_hd__clkbuf_1
X_58_ S2MID[5] VGND VGND VPWR VPWR net59 sky130_fd_sc_hd__clkbuf_1
XFILLER_11_321 VGND VGND VPWR VPWR sky130_fd_sc_hd__decap_3
XANTENNA_11 FrameData[25] VGND VGND VPWR VPWR sky130_fd_sc_hd__diode_2
XANTENNA_22 FrameData[7] VGND VGND VPWR VPWR sky130_fd_sc_hd__diode_2
XFILLER_7_39 VGND VGND VPWR VPWR sky130_fd_sc_hd__decap_6
XFILLER_7_111 VGND VGND VPWR VPWR sky130_fd_sc_hd__fill_1
XFILLER_8_93 VGND VGND VPWR VPWR sky130_fd_sc_hd__decap_3
XFILLER_8_71 VGND VGND VPWR VPWR sky130_fd_sc_hd__fill_2
XPHY_EDGE_ROW_4_Right_4 VGND VGND VPWR VPWR sky130_fd_sc_hd__decap_3
XFILLER_4_29 VPWR VGND VPWR VGND sky130_ef_sc_hd__decap_12
XFILLER_9_217 VGND VGND VPWR VPWR sky130_fd_sc_hd__decap_6
XFILLER_6_209 VPWR VGND VPWR VGND sky130_ef_sc_hd__decap_12
XFILLER_5_83 VPWR VGND VPWR VGND sky130_ef_sc_hd__decap_12
X_74_ S4END[13] VGND VGND VPWR VPWR net81 sky130_fd_sc_hd__clkbuf_1
XTAP_TAPCELL_ROW_1_40 VGND VPWR sky130_fd_sc_hd__tapvpwrvgnd_1