* NGSPICE file created from S_CPU_IF.ext - technology: sky130A

* Black-box entry subcircuit for sky130_fd_sc_hd__decap_8 abstract view
.subckt sky130_fd_sc_hd__decap_8 VGND VNB VPB VPWR
.ends

* Black-box entry subcircuit for sky130_ef_sc_hd__decap_12 abstract view
.subckt sky130_ef_sc_hd__decap_12 VPWR VGND VPB VNB
.ends

* Black-box entry subcircuit for sky130_fd_sc_hd__fill_2 abstract view
.subckt sky130_fd_sc_hd__fill_2 VGND VNB VPB VPWR
.ends

* Black-box entry subcircuit for sky130_fd_sc_hd__tapvpwrvgnd_1 abstract view
.subckt sky130_fd_sc_hd__tapvpwrvgnd_1 VGND VPWR
.ends

* Black-box entry subcircuit for sky130_fd_sc_hd__decap_3 abstract view
.subckt sky130_fd_sc_hd__decap_3 VGND VNB VPB VPWR
.ends

* Black-box entry subcircuit for sky130_fd_sc_hd__buf_2 abstract view
.subckt sky130_fd_sc_hd__buf_2 A VGND VNB VPB VPWR X
.ends

* Black-box entry subcircuit for sky130_fd_sc_hd__mux2_1 abstract view
.subckt sky130_fd_sc_hd__mux2_1 A0 A1 S VGND VNB VPB VPWR X
.ends

* Black-box entry subcircuit for sky130_fd_sc_hd__dlxtp_1 abstract view
.subckt sky130_fd_sc_hd__dlxtp_1 D GATE VGND VNB VPB VPWR Q
.ends

* Black-box entry subcircuit for sky130_fd_sc_hd__clkbuf_1 abstract view
.subckt sky130_fd_sc_hd__clkbuf_1 A VGND VNB VPB VPWR X
.ends

* Black-box entry subcircuit for sky130_fd_sc_hd__decap_4 abstract view
.subckt sky130_fd_sc_hd__decap_4 VGND VNB VPB VPWR
.ends

* Black-box entry subcircuit for sky130_fd_sc_hd__fill_1 abstract view
.subckt sky130_fd_sc_hd__fill_1 VGND VNB VPB VPWR
.ends

* Black-box entry subcircuit for sky130_fd_sc_hd__buf_1 abstract view
.subckt sky130_fd_sc_hd__buf_1 A VGND VNB VPB VPWR X
.ends

* Black-box entry subcircuit for sky130_fd_sc_hd__decap_6 abstract view
.subckt sky130_fd_sc_hd__decap_6 VGND VNB VPB VPWR
.ends

* Black-box entry subcircuit for sky130_fd_sc_hd__mux4_1 abstract view
.subckt sky130_fd_sc_hd__mux4_1 A0 A1 A2 A3 S0 S1 VGND VNB VPB VPWR X
.ends

* Black-box entry subcircuit for sky130_fd_sc_hd__clkbuf_2 abstract view
.subckt sky130_fd_sc_hd__clkbuf_2 A VGND VNB VPB VPWR X
.ends

* Black-box entry subcircuit for sky130_fd_sc_hd__dlymetal6s2s_1 abstract view
.subckt sky130_fd_sc_hd__dlymetal6s2s_1 A VGND VNB VPB VPWR X
.ends

* Black-box entry subcircuit for sky130_fd_sc_hd__conb_1 abstract view
.subckt sky130_fd_sc_hd__conb_1 VGND VNB VPB VPWR HI LO
.ends

* Black-box entry subcircuit for sky130_fd_sc_hd__diode_2 abstract view
.subckt sky130_fd_sc_hd__diode_2 DIODE VGND VNB VPB VPWR
.ends

.subckt S_CPU_IF Co FrameData[0] FrameData[10] FrameData[11] FrameData[12] FrameData[13]
+ FrameData[14] FrameData[15] FrameData[16] FrameData[17] FrameData[18] FrameData[19]
+ FrameData[1] FrameData[20] FrameData[21] FrameData[22] FrameData[23] FrameData[24]
+ FrameData[25] FrameData[26] FrameData[27] FrameData[28] FrameData[29] FrameData[2]
+ FrameData[30] FrameData[31] FrameData[3] FrameData[4] FrameData[5] FrameData[6]
+ FrameData[7] FrameData[8] FrameData[9] FrameData_O[0] FrameData_O[10] FrameData_O[11]
+ FrameData_O[12] FrameData_O[13] FrameData_O[14] FrameData_O[15] FrameData_O[16]
+ FrameData_O[17] FrameData_O[18] FrameData_O[19] FrameData_O[1] FrameData_O[20] FrameData_O[21]
+ FrameData_O[22] FrameData_O[23] FrameData_O[24] FrameData_O[25] FrameData_O[26]
+ FrameData_O[27] FrameData_O[28] FrameData_O[29] FrameData_O[2] FrameData_O[30] FrameData_O[31]
+ FrameData_O[3] FrameData_O[4] FrameData_O[5] FrameData_O[6] FrameData_O[7] FrameData_O[8]
+ FrameData_O[9] FrameStrobe[0] FrameStrobe[10] FrameStrobe[11] FrameStrobe[12] FrameStrobe[13]
+ FrameStrobe[14] FrameStrobe[15] FrameStrobe[16] FrameStrobe[17] FrameStrobe[18]
+ FrameStrobe[19] FrameStrobe[1] FrameStrobe[2] FrameStrobe[3] FrameStrobe[4] FrameStrobe[5]
+ FrameStrobe[6] FrameStrobe[7] FrameStrobe[8] FrameStrobe[9] FrameStrobe_O[0] FrameStrobe_O[10]
+ FrameStrobe_O[11] FrameStrobe_O[12] FrameStrobe_O[13] FrameStrobe_O[14] FrameStrobe_O[15]
+ FrameStrobe_O[16] FrameStrobe_O[17] FrameStrobe_O[18] FrameStrobe_O[19] FrameStrobe_O[1]
+ FrameStrobe_O[2] FrameStrobe_O[3] FrameStrobe_O[4] FrameStrobe_O[5] FrameStrobe_O[6]
+ FrameStrobe_O[7] FrameStrobe_O[8] FrameStrobe_O[9] I_top0 I_top1 I_top10 I_top11
+ I_top12 I_top13 I_top14 I_top15 I_top2 I_top3 I_top4 I_top5 I_top6 I_top7 I_top8
+ I_top9 N1BEG[0] N1BEG[1] N1BEG[2] N1BEG[3] N2BEG[0] N2BEG[1] N2BEG[2] N2BEG[3] N2BEG[4]
+ N2BEG[5] N2BEG[6] N2BEG[7] N2BEGb[0] N2BEGb[1] N2BEGb[2] N2BEGb[3] N2BEGb[4] N2BEGb[5]
+ N2BEGb[6] N2BEGb[7] N4BEG[0] N4BEG[10] N4BEG[11] N4BEG[12] N4BEG[13] N4BEG[14] N4BEG[15]
+ N4BEG[1] N4BEG[2] N4BEG[3] N4BEG[4] N4BEG[5] N4BEG[6] N4BEG[7] N4BEG[8] N4BEG[9]
+ NN4BEG[0] NN4BEG[10] NN4BEG[11] NN4BEG[12] NN4BEG[13] NN4BEG[14] NN4BEG[15] NN4BEG[1]
+ NN4BEG[2] NN4BEG[3] NN4BEG[4] NN4BEG[5] NN4BEG[6] NN4BEG[7] NN4BEG[8] NN4BEG[9]
+ O_top0 O_top1 O_top10 O_top11 O_top12 O_top13 O_top14 O_top15 O_top2 O_top3 O_top4
+ O_top5 O_top6 O_top7 O_top8 O_top9 S1END[0] S1END[1] S1END[2] S1END[3] S2END[0]
+ S2END[1] S2END[2] S2END[3] S2END[4] S2END[5] S2END[6] S2END[7] S2MID[0] S2MID[1]
+ S2MID[2] S2MID[3] S2MID[4] S2MID[5] S2MID[6] S2MID[7] S4END[0] S4END[10] S4END[11]
+ S4END[12] S4END[13] S4END[14] S4END[15] S4END[1] S4END[2] S4END[3] S4END[4] S4END[5]
+ S4END[6] S4END[7] S4END[8] S4END[9] SS4END[0] SS4END[10] SS4END[11] SS4END[12] SS4END[13]
+ SS4END[14] SS4END[15] SS4END[1] SS4END[2] SS4END[3] SS4END[4] SS4END[5] SS4END[6]
+ SS4END[7] SS4END[8] SS4END[9] UserCLK UserCLKo VGND VPWR
XFILLER_5_365 VGND VGND VPWR VPWR sky130_fd_sc_hd__decap_8
XFILLER_5_310 VPWR VGND VPWR VGND sky130_ef_sc_hd__decap_12
XFILLER_3_78 VGND VGND VPWR VPWR sky130_fd_sc_hd__fill_2
XTAP_TAPCELL_ROW_8_88 VGND VPWR sky130_fd_sc_hd__tapvpwrvgnd_1
XPHY_EDGE_ROW_0_Left_12 VGND VGND VPWR VPWR sky130_fd_sc_hd__decap_3
XTAP_TAPCELL_ROW_11_120 VGND VPWR sky130_fd_sc_hd__tapvpwrvgnd_1
Xoutput220 net231 VGND VGND VPWR VPWR NN4BEG[9] sky130_fd_sc_hd__buf_2
X_062_ net78 net56 Inst_S_CPU_IF_ConfigMem.Inst_frame2_bit17.Q VGND VGND VPWR VPWR
+ Inst_S_CPU_IF_switch_matrix.N2BEG1 sky130_fd_sc_hd__mux2_1
X_131_ net30 net43 VGND VGND VPWR VPWR Inst_S_CPU_IF_ConfigMem.Inst_frame0_bit7.Q
+ sky130_fd_sc_hd__dlxtp_1
XFILLER_7_405 VGND VGND VPWR VPWR sky130_fd_sc_hd__fill_2
X_200_ FrameStrobe[11] VGND VGND VPWR VPWR net146 sky130_fd_sc_hd__clkbuf_1
XFILLER_2_121 VGND VGND VPWR VPWR sky130_fd_sc_hd__decap_3
XFILLER_7_202 VGND VGND VPWR VPWR sky130_fd_sc_hd__fill_2
XTAP_TAPCELL_ROW_5_67 VGND VPWR sky130_fd_sc_hd__tapvpwrvgnd_1
X_114_ net15 net40 VGND VGND VPWR VPWR Inst_S_CPU_IF_ConfigMem.Inst_frame1_bit22.Q
+ sky130_fd_sc_hd__dlxtp_1
X_045_ net84 net49 Inst_S_CPU_IF_ConfigMem.Inst_frame1_bit2.Q VGND VGND VPWR VPWR
+ Inst_S_CPU_IF_switch_matrix.N4BEG2 sky130_fd_sc_hd__mux2_1
X_028_ net99 net48 Inst_S_CPU_IF_ConfigMem.Inst_frame1_bit19.Q VGND VGND VPWR VPWR
+ Inst_S_CPU_IF_switch_matrix.NN4BEG3 sky130_fd_sc_hd__mux2_1
XFILLER_6_45 VGND VGND VPWR VPWR sky130_fd_sc_hd__decap_8
XFILLER_6_12 VPWR VGND VPWR VGND sky130_ef_sc_hd__decap_12
XFILLER_3_293 VPWR VGND VPWR VGND sky130_ef_sc_hd__decap_12
XFILLER_9_308 VGND VGND VPWR VPWR sky130_fd_sc_hd__decap_4
XFILLER_8_330 VGND VGND VPWR VPWR sky130_fd_sc_hd__fill_2
XTAP_TAPCELL_ROW_2_46 VGND VPWR sky130_fd_sc_hd__tapvpwrvgnd_1
XFILLER_9_149 VGND VGND VPWR VPWR sky130_fd_sc_hd__fill_1
XFILLER_5_377 VPWR VGND VPWR VGND sky130_ef_sc_hd__decap_12
XFILLER_5_322 VPWR VGND VPWR VGND sky130_ef_sc_hd__decap_12
XTAP_TAPCELL_ROW_11_121 VGND VPWR sky130_fd_sc_hd__tapvpwrvgnd_1
XTAP_TAPCELL_ROW_11_110 VGND VPWR sky130_fd_sc_hd__tapvpwrvgnd_1
XTAP_TAPCELL_ROW_8_89 VGND VPWR sky130_fd_sc_hd__tapvpwrvgnd_1
XFILLER_1_391 VGND VGND VPWR VPWR sky130_fd_sc_hd__fill_1
Xoutput210 net221 VGND VGND VPWR VPWR NN4BEG[14] sky130_fd_sc_hd__buf_2
Xoutput221 net232 VGND VGND VPWR VPWR UserCLKo sky130_fd_sc_hd__buf_1
X_130_ net29 net43 VGND VGND VPWR VPWR Inst_S_CPU_IF_ConfigMem.Inst_frame0_bit6.Q
+ sky130_fd_sc_hd__dlxtp_1
XFILLER_9_23 VPWR VGND VPWR VGND sky130_ef_sc_hd__decap_12
X_259_ Inst_S_CPU_IF_switch_matrix.NN4BEG14 VGND VGND VPWR VPWR net221 sky130_fd_sc_hd__buf_1
X_061_ net77 net55 Inst_S_CPU_IF_ConfigMem.Inst_frame2_bit18.Q VGND VGND VPWR VPWR
+ Inst_S_CPU_IF_switch_matrix.N2BEG2 sky130_fd_sc_hd__mux2_1
XFILLER_7_225 VGND VGND VPWR VPWR sky130_fd_sc_hd__decap_6
X_044_ net83 net48 Inst_S_CPU_IF_ConfigMem.Inst_frame1_bit3.Q VGND VGND VPWR VPWR
+ Inst_S_CPU_IF_switch_matrix.N4BEG3 sky130_fd_sc_hd__mux2_1
XTAP_TAPCELL_ROW_5_68 VGND VPWR sky130_fd_sc_hd__tapvpwrvgnd_1
X_113_ net14 net41 VGND VGND VPWR VPWR Inst_S_CPU_IF_ConfigMem.Inst_frame1_bit21.Q
+ sky130_fd_sc_hd__dlxtp_1
XFILLER_6_68 VPWR VGND VPWR VGND sky130_ef_sc_hd__decap_12
XFILLER_6_24 VGND VGND VPWR VPWR sky130_fd_sc_hd__decap_4
X_027_ net98 net47 Inst_S_CPU_IF_ConfigMem.Inst_frame1_bit20.Q VGND VGND VPWR VPWR
+ Inst_S_CPU_IF_switch_matrix.NN4BEG4 sky130_fd_sc_hd__mux2_1
XPHY_EDGE_ROW_6_Right_6 VGND VGND VPWR VPWR sky130_fd_sc_hd__decap_3
XTAP_TAPCELL_ROW_2_47 VGND VPWR sky130_fd_sc_hd__tapvpwrvgnd_1
XFILLER_8_353 VGND VGND VPWR VPWR sky130_fd_sc_hd__decap_8
XFILLER_9_139 VGND VGND VPWR VPWR sky130_fd_sc_hd__fill_1
XFILLER_5_389 VGND VGND VPWR VPWR sky130_fd_sc_hd__decap_3
XFILLER_5_334 VGND VGND VPWR VPWR sky130_fd_sc_hd__fill_2
XFILLER_3_47 VGND VGND VPWR VPWR sky130_fd_sc_hd__decap_8
XTAP_TAPCELL_ROW_11_111 VGND VPWR sky130_fd_sc_hd__tapvpwrvgnd_1
Xoutput211 net222 VGND VGND VPWR VPWR NN4BEG[15] sky130_fd_sc_hd__buf_2
Xoutput200 net211 VGND VGND VPWR VPWR N4BEG[5] sky130_fd_sc_hd__buf_2
X_060_ net76 net54 Inst_S_CPU_IF_ConfigMem.Inst_frame2_bit19.Q VGND VGND VPWR VPWR
+ Inst_S_CPU_IF_switch_matrix.N2BEG3 sky130_fd_sc_hd__mux2_1
XFILLER_9_35 VGND VGND VPWR VPWR sky130_fd_sc_hd__decap_8
XFILLER_2_156 VGND VGND VPWR VPWR sky130_fd_sc_hd__decap_6
XFILLER_2_178 VGND VGND VPWR VPWR sky130_fd_sc_hd__fill_1
X_189_ net44 VGND VGND VPWR VPWR net144 sky130_fd_sc_hd__clkbuf_1
X_258_ Inst_S_CPU_IF_switch_matrix.NN4BEG13 VGND VGND VPWR VPWR net220 sky130_fd_sc_hd__buf_1
XFILLER_11_222 VGND VGND VPWR VPWR sky130_fd_sc_hd__fill_2
XTAP_TAPCELL_ROW_5_69 VGND VPWR sky130_fd_sc_hd__tapvpwrvgnd_1
X_043_ net82 net47 Inst_S_CPU_IF_ConfigMem.Inst_frame1_bit4.Q VGND VGND VPWR VPWR
+ Inst_S_CPU_IF_switch_matrix.N4BEG4 sky130_fd_sc_hd__mux2_1
X_112_ net13 net41 VGND VGND VPWR VPWR Inst_S_CPU_IF_ConfigMem.Inst_frame1_bit20.Q
+ sky130_fd_sc_hd__dlxtp_1
X_026_ net97 net46 Inst_S_CPU_IF_ConfigMem.Inst_frame1_bit21.Q VGND VGND VPWR VPWR
+ Inst_S_CPU_IF_switch_matrix.NN4BEG5 sky130_fd_sc_hd__mux2_1
Xinput100 SS4END[9] VGND VGND VPWR VPWR net111 sky130_fd_sc_hd__buf_1
XFILLER_0_210 VGND VGND VPWR VPWR sky130_fd_sc_hd__fill_1
XTAP_TAPCELL_ROW_2_48 VGND VPWR sky130_fd_sc_hd__tapvpwrvgnd_1
XFILLER_8_365 VPWR VGND VPWR VGND sky130_ef_sc_hd__decap_12
XFILLER_8_321 VGND VGND VPWR VPWR sky130_fd_sc_hd__decap_6
X_009_ net62 net66 net92 net108 Inst_S_CPU_IF_ConfigMem.Inst_frame0_bit12.Q Inst_S_CPU_IF_ConfigMem.Inst_frame0_bit13.Q
+ VGND VGND VPWR VPWR net176 sky130_fd_sc_hd__mux4_1
XFILLER_10_309 VGND VGND VPWR VPWR sky130_fd_sc_hd__fill_1
XFILLER_8_162 VGND VGND VPWR VPWR sky130_fd_sc_hd__fill_1
XFILLER_2_338 VPWR VGND VPWR VGND sky130_ef_sc_hd__decap_12
XTAP_TAPCELL_ROW_11_112 VGND VPWR sky130_fd_sc_hd__tapvpwrvgnd_1
XFILLER_5_143 VGND VGND VPWR VPWR sky130_fd_sc_hd__fill_1
Xoutput201 net212 VGND VGND VPWR VPWR N4BEG[6] sky130_fd_sc_hd__buf_2
Xoutput212 net223 VGND VGND VPWR VPWR NN4BEG[1] sky130_fd_sc_hd__buf_2
XFILLER_1_393 VGND VGND VPWR VPWR sky130_fd_sc_hd__decap_8
XPHY_EDGE_ROW_4_Left_16 VGND VGND VPWR VPWR sky130_fd_sc_hd__decap_3
X_257_ Inst_S_CPU_IF_switch_matrix.NN4BEG12 VGND VGND VPWR VPWR net219 sky130_fd_sc_hd__clkbuf_1
XFILLER_1_190 VGND VGND VPWR VPWR sky130_fd_sc_hd__decap_8
X_188_ net25 VGND VGND VPWR VPWR net136 sky130_fd_sc_hd__clkbuf_2
X_111_ net11 net38 VGND VGND VPWR VPWR Inst_S_CPU_IF_ConfigMem.Inst_frame1_bit19.Q
+ sky130_fd_sc_hd__dlxtp_1
X_042_ net81 net46 Inst_S_CPU_IF_ConfigMem.Inst_frame1_bit5.Q VGND VGND VPWR VPWR
+ Inst_S_CPU_IF_switch_matrix.N4BEG5 sky130_fd_sc_hd__mux2_1
XFILLER_3_400 VGND VGND VPWR VPWR sky130_fd_sc_hd__decap_8
X_025_ net111 net59 Inst_S_CPU_IF_ConfigMem.Inst_frame1_bit22.Q VGND VGND VPWR VPWR
+ Inst_S_CPU_IF_switch_matrix.NN4BEG6 sky130_fd_sc_hd__mux2_1
XFILLER_0_277 VGND VGND VPWR VPWR sky130_fd_sc_hd__decap_3
XTAP_TAPCELL_ROW_2_49 VGND VPWR sky130_fd_sc_hd__tapvpwrvgnd_1
XFILLER_8_377 VPWR VGND VPWR VGND sky130_ef_sc_hd__decap_12
X_008_ net63 net67 net93 net109 Inst_S_CPU_IF_ConfigMem.Inst_frame0_bit14.Q Inst_S_CPU_IF_ConfigMem.Inst_frame0_bit15.Q
+ VGND VGND VPWR VPWR net177 sky130_fd_sc_hd__mux4_1
XFILLER_8_141 VGND VGND VPWR VPWR sky130_fd_sc_hd__decap_4
XTAP_TAPCELL_ROW_11_113 VGND VPWR sky130_fd_sc_hd__tapvpwrvgnd_1
XFILLER_2_306 VGND VGND VPWR VPWR sky130_fd_sc_hd__fill_2
Xoutput213 net224 VGND VGND VPWR VPWR NN4BEG[2] sky130_fd_sc_hd__buf_2
Xoutput202 net213 VGND VGND VPWR VPWR N4BEG[7] sky130_fd_sc_hd__buf_2
XFILLER_1_361 VPWR VGND VPWR VGND sky130_ef_sc_hd__decap_12
XFILLER_2_136 VGND VGND VPWR VPWR sky130_fd_sc_hd__decap_4
X_256_ Inst_S_CPU_IF_switch_matrix.NN4BEG11 VGND VGND VPWR VPWR net218 sky130_fd_sc_hd__clkbuf_1
X_187_ net24 VGND VGND VPWR VPWR net135 sky130_fd_sc_hd__clkbuf_2
X_041_ net95 net59 Inst_S_CPU_IF_ConfigMem.Inst_frame1_bit6.Q VGND VGND VPWR VPWR
+ Inst_S_CPU_IF_switch_matrix.N4BEG6 sky130_fd_sc_hd__mux2_1
X_110_ net10 net38 VGND VGND VPWR VPWR Inst_S_CPU_IF_ConfigMem.Inst_frame1_bit18.Q
+ sky130_fd_sc_hd__dlxtp_1
XFILLER_6_250 VGND VGND VPWR VPWR sky130_fd_sc_hd__fill_2
X_239_ Inst_S_CPU_IF_switch_matrix.N4BEG10 VGND VGND VPWR VPWR net201 sky130_fd_sc_hd__buf_1
X_024_ net110 net58 Inst_S_CPU_IF_ConfigMem.Inst_frame1_bit23.Q VGND VGND VPWR VPWR
+ Inst_S_CPU_IF_switch_matrix.NN4BEG7 sky130_fd_sc_hd__mux2_1
XFILLER_8_389 VGND VGND VPWR VPWR sky130_fd_sc_hd__decap_8
X_007_ net60 net68 net94 net110 Inst_S_CPU_IF_ConfigMem.Inst_frame0_bit16.Q Inst_S_CPU_IF_ConfigMem.Inst_frame0_bit17.Q
+ VGND VGND VPWR VPWR net178 sky130_fd_sc_hd__mux4_1
XFILLER_0_223 VGND VGND VPWR VPWR sky130_fd_sc_hd__fill_1
XFILLER_8_197 VGND VGND VPWR VPWR sky130_fd_sc_hd__decap_3
XTAP_TAPCELL_ROW_11_114 VGND VPWR sky130_fd_sc_hd__tapvpwrvgnd_1
XFILLER_1_373 VPWR VGND VPWR VGND sky130_ef_sc_hd__decap_12
Xoutput214 net225 VGND VGND VPWR VPWR NN4BEG[3] sky130_fd_sc_hd__buf_2
Xoutput203 net214 VGND VGND VPWR VPWR N4BEG[8] sky130_fd_sc_hd__buf_2
XFILLER_0_29 VGND VGND VPWR VPWR sky130_fd_sc_hd__fill_2
X_186_ net22 VGND VGND VPWR VPWR net133 sky130_fd_sc_hd__clkbuf_1
X_255_ Inst_S_CPU_IF_switch_matrix.NN4BEG10 VGND VGND VPWR VPWR net217 sky130_fd_sc_hd__buf_1
X_040_ net94 net58 Inst_S_CPU_IF_ConfigMem.Inst_frame1_bit7.Q VGND VGND VPWR VPWR
+ Inst_S_CPU_IF_switch_matrix.N4BEG7 sky130_fd_sc_hd__mux2_1
X_238_ Inst_S_CPU_IF_switch_matrix.N4BEG9 VGND VGND VPWR VPWR net215 sky130_fd_sc_hd__buf_1
XFILLER_6_273 VGND VGND VPWR VPWR sky130_fd_sc_hd__fill_2
XFILLER_1_72 VPWR VGND VPWR VGND sky130_ef_sc_hd__decap_12
X_169_ net4 VGND VGND VPWR VPWR net115 sky130_fd_sc_hd__buf_1
X_023_ net109 net57 Inst_S_CPU_IF_ConfigMem.Inst_frame1_bit24.Q VGND VGND VPWR VPWR
+ Inst_S_CPU_IF_switch_matrix.NN4BEG8 sky130_fd_sc_hd__mux2_1
XFILLER_8_302 VGND VGND VPWR VPWR sky130_fd_sc_hd__decap_6
XFILLER_0_257 VPWR VGND VPWR VGND sky130_ef_sc_hd__decap_12
X_006_ net61 net69 net95 net111 Inst_S_CPU_IF_ConfigMem.Inst_frame0_bit18.Q Inst_S_CPU_IF_ConfigMem.Inst_frame0_bit19.Q
+ VGND VGND VPWR VPWR net179 sky130_fd_sc_hd__mux4_1
XFILLER_7_82 VGND VGND VPWR VPWR sky130_fd_sc_hd__decap_4
XFILLER_8_154 VGND VGND VPWR VPWR sky130_fd_sc_hd__decap_8
XFILLER_8_132 VGND VGND VPWR VPWR sky130_fd_sc_hd__decap_8
XTAP_TAPCELL_ROW_11_115 VGND VPWR sky130_fd_sc_hd__tapvpwrvgnd_1
XFILLER_5_113 VGND VGND VPWR VPWR sky130_fd_sc_hd__fill_1
XFILLER_1_385 VGND VGND VPWR VPWR sky130_fd_sc_hd__decap_6
Xoutput215 net226 VGND VGND VPWR VPWR NN4BEG[4] sky130_fd_sc_hd__buf_2
Xoutput204 net215 VGND VGND VPWR VPWR N4BEG[9] sky130_fd_sc_hd__buf_2
XFILLER_4_83 VGND VGND VPWR VPWR sky130_fd_sc_hd__fill_1
X_185_ net21 VGND VGND VPWR VPWR net132 sky130_fd_sc_hd__buf_1
X_254_ Inst_S_CPU_IF_switch_matrix.NN4BEG9 VGND VGND VPWR VPWR net231 sky130_fd_sc_hd__buf_1
XFILLER_6_400 VGND VGND VPWR VPWR sky130_fd_sc_hd__fill_1
XFILLER_11_237 VGND VGND VPWR VPWR sky130_fd_sc_hd__fill_1
XFILLER_7_219 VGND VGND VPWR VPWR sky130_fd_sc_hd__decap_4
X_099_ net30 net41 VGND VGND VPWR VPWR Inst_S_CPU_IF_ConfigMem.Inst_frame1_bit7.Q
+ sky130_fd_sc_hd__dlxtp_1
X_237_ Inst_S_CPU_IF_switch_matrix.N4BEG8 VGND VGND VPWR VPWR net214 sky130_fd_sc_hd__clkbuf_1
X_168_ net3 VGND VGND VPWR VPWR net114 sky130_fd_sc_hd__clkbuf_2
XFILLER_1_84 VGND VGND VPWR VPWR sky130_fd_sc_hd__decap_4
X_022_ net108 net56 Inst_S_CPU_IF_ConfigMem.Inst_frame1_bit25.Q VGND VGND VPWR VPWR
+ Inst_S_CPU_IF_switch_matrix.NN4BEG9 sky130_fd_sc_hd__mux2_1
XFILLER_3_200 VGND VGND VPWR VPWR sky130_fd_sc_hd__decap_3
XFILLER_3_255 VGND VGND VPWR VPWR sky130_fd_sc_hd__fill_1
XFILLER_0_225 VGND VGND VPWR VPWR sky130_fd_sc_hd__fill_2
XFILLER_0_269 VGND VGND VPWR VPWR sky130_fd_sc_hd__decap_8
XPHY_EDGE_ROW_1_Right_1 VGND VGND VPWR VPWR sky130_fd_sc_hd__decap_3
X_005_ net62 net70 net81 net97 Inst_S_CPU_IF_ConfigMem.Inst_frame0_bit20.Q Inst_S_CPU_IF_ConfigMem.Inst_frame0_bit21.Q
+ VGND VGND VPWR VPWR net166 sky130_fd_sc_hd__mux4_1
XFILLER_7_391 VGND VGND VPWR VPWR sky130_fd_sc_hd__fill_1
XFILLER_2_309 VGND VGND VPWR VPWR sky130_fd_sc_hd__decap_8
XTAP_TAPCELL_ROW_11_116 VGND VPWR sky130_fd_sc_hd__tapvpwrvgnd_1
XFILLER_1_331 VGND VGND VPWR VPWR sky130_fd_sc_hd__decap_4
Xoutput216 net227 VGND VGND VPWR VPWR NN4BEG[5] sky130_fd_sc_hd__buf_2
Xoutput205 net216 VGND VGND VPWR VPWR NN4BEG[0] sky130_fd_sc_hd__buf_2
XFILLER_4_73 VGND VGND VPWR VPWR sky130_fd_sc_hd__decap_3
XTAP_TAPCELL_ROW_9_94 VGND VPWR sky130_fd_sc_hd__tapvpwrvgnd_1
X_253_ Inst_S_CPU_IF_switch_matrix.NN4BEG8 VGND VGND VPWR VPWR net230 sky130_fd_sc_hd__clkbuf_1
X_184_ net20 VGND VGND VPWR VPWR net131 sky130_fd_sc_hd__clkbuf_2
XTAP_TAPCELL_ROW_0_30 VGND VPWR sky130_fd_sc_hd__tapvpwrvgnd_1
X_236_ Inst_S_CPU_IF_switch_matrix.N4BEG7 VGND VGND VPWR VPWR net213 sky130_fd_sc_hd__clkbuf_1
X_098_ net29 net40 VGND VGND VPWR VPWR Inst_S_CPU_IF_ConfigMem.Inst_frame1_bit6.Q
+ sky130_fd_sc_hd__dlxtp_1
X_167_ net2 VGND VGND VPWR VPWR net113 sky130_fd_sc_hd__buf_1
X_021_ net107 net55 Inst_S_CPU_IF_ConfigMem.Inst_frame1_bit26.Q VGND VGND VPWR VPWR
+ Inst_S_CPU_IF_switch_matrix.NN4BEG10 sky130_fd_sc_hd__mux2_1
XFILLER_3_223 VGND VGND VPWR VPWR sky130_fd_sc_hd__fill_1
XPHY_EDGE_ROW_11_Left_23 VGND VGND VPWR VPWR sky130_fd_sc_hd__decap_3
XTAP_TAPCELL_ROW_6_73 VGND VPWR sky130_fd_sc_hd__tapvpwrvgnd_1
X_219_ Inst_S_CPU_IF_switch_matrix.N2BEG6 VGND VGND VPWR VPWR net190 sky130_fd_sc_hd__clkbuf_1
X_004_ net63 net71 net82 net98 Inst_S_CPU_IF_ConfigMem.Inst_frame0_bit22.Q Inst_S_CPU_IF_ConfigMem.Inst_frame0_bit23.Q
+ VGND VGND VPWR VPWR net167 sky130_fd_sc_hd__mux4_1
XFILLER_7_51 VGND VGND VPWR VPWR sky130_fd_sc_hd__decap_4
XTAP_TAPCELL_ROW_3_52 VGND VPWR sky130_fd_sc_hd__tapvpwrvgnd_1
XTAP_TAPCELL_ROW_11_117 VGND VPWR sky130_fd_sc_hd__tapvpwrvgnd_1
Xoutput206 net217 VGND VGND VPWR VPWR NN4BEG[10] sky130_fd_sc_hd__buf_2
Xoutput217 net228 VGND VGND VPWR VPWR NN4BEG[6] sky130_fd_sc_hd__buf_2
XFILLER_4_41 VGND VGND VPWR VPWR sky130_fd_sc_hd__decap_8
XFILLER_4_85 VPWR VGND VPWR VGND sky130_ef_sc_hd__decap_12
XFILLER_11_409 VGND VGND VPWR VPWR sky130_fd_sc_hd__decap_3
X_252_ Inst_S_CPU_IF_switch_matrix.NN4BEG7 VGND VGND VPWR VPWR net229 sky130_fd_sc_hd__clkbuf_1
XTAP_TAPCELL_ROW_9_95 VGND VPWR sky130_fd_sc_hd__tapvpwrvgnd_1
X_183_ net19 VGND VGND VPWR VPWR net130 sky130_fd_sc_hd__clkbuf_2
XTAP_TAPCELL_ROW_0_31 VGND VPWR sky130_fd_sc_hd__tapvpwrvgnd_1
Xfanout40 net41 VGND VGND VPWR VPWR net40 sky130_fd_sc_hd__buf_2
XFILLER_9_251 VGND VGND VPWR VPWR sky130_fd_sc_hd__decap_8
X_235_ Inst_S_CPU_IF_switch_matrix.N4BEG6 VGND VGND VPWR VPWR net212 sky130_fd_sc_hd__buf_1
XFILLER_6_265 VGND VGND VPWR VPWR sky130_fd_sc_hd__decap_8
X_166_ net32 VGND VGND VPWR VPWR net143 sky130_fd_sc_hd__clkbuf_2
XFILLER_1_53 VGND VGND VPWR VPWR sky130_fd_sc_hd__decap_3
X_097_ net28 net41 VGND VGND VPWR VPWR Inst_S_CPU_IF_ConfigMem.Inst_frame1_bit5.Q
+ sky130_fd_sc_hd__dlxtp_1
X_020_ net106 net54 Inst_S_CPU_IF_ConfigMem.Inst_frame1_bit27.Q VGND VGND VPWR VPWR
+ Inst_S_CPU_IF_switch_matrix.NN4BEG11 sky130_fd_sc_hd__mux2_1
XFILLER_3_268 VPWR VGND VPWR VGND sky130_ef_sc_hd__decap_12
X_149_ net18 net44 VGND VGND VPWR VPWR Inst_S_CPU_IF_ConfigMem.Inst_frame0_bit25.Q
+ sky130_fd_sc_hd__dlxtp_1
XTAP_TAPCELL_ROW_6_74 VGND VPWR sky130_fd_sc_hd__tapvpwrvgnd_1
X_218_ Inst_S_CPU_IF_switch_matrix.N2BEG5 VGND VGND VPWR VPWR net189 sky130_fd_sc_hd__clkbuf_2
X_003_ net60 net76 net83 net99 Inst_S_CPU_IF_ConfigMem.Inst_frame0_bit24.Q Inst_S_CPU_IF_ConfigMem.Inst_frame0_bit25.Q
+ VGND VGND VPWR VPWR net168 sky130_fd_sc_hd__mux4_1
XFILLER_7_393 VPWR VGND VPWR VGND sky130_ef_sc_hd__decap_12
XTAP_TAPCELL_ROW_3_53 VGND VPWR sky130_fd_sc_hd__tapvpwrvgnd_1
XFILLER_4_363 VGND VGND VPWR VPWR sky130_fd_sc_hd__fill_1
XTAP_TAPCELL_ROW_11_118 VGND VPWR sky130_fd_sc_hd__tapvpwrvgnd_1
Xoutput218 net229 VGND VGND VPWR VPWR NN4BEG[7] sky130_fd_sc_hd__buf_2
Xoutput207 net218 VGND VGND VPWR VPWR NN4BEG[11] sky130_fd_sc_hd__buf_2
XFILLER_4_97 VGND VGND VPWR VPWR sky130_fd_sc_hd__decap_6
X_182_ net18 VGND VGND VPWR VPWR net129 sky130_fd_sc_hd__buf_1
XTAP_TAPCELL_ROW_0_32 VGND VPWR sky130_fd_sc_hd__tapvpwrvgnd_1
Xfanout41 FrameStrobe[1] VGND VGND VPWR VPWR net41 sky130_fd_sc_hd__clkbuf_2
X_251_ Inst_S_CPU_IF_switch_matrix.NN4BEG6 VGND VGND VPWR VPWR net228 sky130_fd_sc_hd__clkbuf_1
XFILLER_9_296 VGND VGND VPWR VPWR sky130_fd_sc_hd__fill_1
XFILLER_9_241 VGND VGND VPWR VPWR sky130_fd_sc_hd__fill_1
XTAP_TAPCELL_ROW_9_96 VGND VPWR sky130_fd_sc_hd__tapvpwrvgnd_1
XFILLER_11_218 VGND VGND VPWR VPWR sky130_fd_sc_hd__fill_1
XFILLER_10_295 VGND VGND VPWR VPWR sky130_fd_sc_hd__fill_1
X_165_ net31 VGND VGND VPWR VPWR net142 sky130_fd_sc_hd__clkbuf_2
X_234_ Inst_S_CPU_IF_switch_matrix.N4BEG5 VGND VGND VPWR VPWR net211 sky130_fd_sc_hd__buf_1
XFILLER_1_32 VGND VGND VPWR VPWR sky130_fd_sc_hd__decap_3
X_096_ net27 net41 VGND VGND VPWR VPWR Inst_S_CPU_IF_ConfigMem.Inst_frame1_bit4.Q
+ sky130_fd_sc_hd__dlxtp_1
X_148_ net17 net44 VGND VGND VPWR VPWR Inst_S_CPU_IF_ConfigMem.Inst_frame0_bit24.Q
+ sky130_fd_sc_hd__dlxtp_1
X_217_ Inst_S_CPU_IF_switch_matrix.N2BEG4 VGND VGND VPWR VPWR net188 sky130_fd_sc_hd__buf_1
XTAP_TAPCELL_ROW_6_75 VGND VPWR sky130_fd_sc_hd__tapvpwrvgnd_1
X_079_ net11 net36 VGND VGND VPWR VPWR Inst_S_CPU_IF_ConfigMem.Inst_frame2_bit19.Q
+ sky130_fd_sc_hd__dlxtp_1
X_002_ net61 net77 net84 net100 Inst_S_CPU_IF_ConfigMem.Inst_frame0_bit26.Q Inst_S_CPU_IF_ConfigMem.Inst_frame0_bit27.Q
+ VGND VGND VPWR VPWR net169 sky130_fd_sc_hd__mux4_1
XFILLER_7_361 VGND VGND VPWR VPWR sky130_fd_sc_hd__fill_2
XFILLER_7_86 VGND VGND VPWR VPWR sky130_fd_sc_hd__fill_1
XFILLER_7_31 VGND VGND VPWR VPWR sky130_fd_sc_hd__decap_4
XPHY_EDGE_ROW_5_Right_5 VGND VGND VPWR VPWR sky130_fd_sc_hd__decap_3
XTAP_TAPCELL_ROW_3_54 VGND VPWR sky130_fd_sc_hd__tapvpwrvgnd_1
XTAP_TAPCELL_ROW_11_119 VGND VPWR sky130_fd_sc_hd__tapvpwrvgnd_1
XTAP_TAPCELL_ROW_11_108 VGND VPWR sky130_fd_sc_hd__tapvpwrvgnd_1
XFILLER_5_139 VGND VGND VPWR VPWR sky130_fd_sc_hd__decap_4
XFILLER_5_117 VGND VGND VPWR VPWR sky130_fd_sc_hd__fill_1
XFILLER_1_301 VGND VGND VPWR VPWR sky130_fd_sc_hd__decap_6
XFILLER_1_345 VGND VGND VPWR VPWR sky130_fd_sc_hd__fill_1
Xoutput208 net219 VGND VGND VPWR VPWR NN4BEG[12] sky130_fd_sc_hd__buf_2
Xoutput219 net230 VGND VGND VPWR VPWR NN4BEG[8] sky130_fd_sc_hd__buf_2
XFILLER_4_172 VGND VGND VPWR VPWR sky130_fd_sc_hd__decap_4
X_181_ net17 VGND VGND VPWR VPWR net128 sky130_fd_sc_hd__buf_1
XFILLER_6_404 VGND VGND VPWR VPWR sky130_fd_sc_hd__decap_6
Xfanout42 net43 VGND VGND VPWR VPWR net42 sky130_fd_sc_hd__buf_2
XTAP_TAPCELL_ROW_0_33 VGND VPWR sky130_fd_sc_hd__tapvpwrvgnd_1
X_250_ Inst_S_CPU_IF_switch_matrix.NN4BEG5 VGND VGND VPWR VPWR net227 sky130_fd_sc_hd__buf_1
XFILLER_9_264 VPWR VGND VPWR VGND sky130_ef_sc_hd__decap_12
XTAP_TAPCELL_ROW_9_97 VGND VPWR sky130_fd_sc_hd__tapvpwrvgnd_1
X_164_ net30 VGND VGND VPWR VPWR net141 sky130_fd_sc_hd__buf_1
X_095_ net26 net38 VGND VGND VPWR VPWR Inst_S_CPU_IF_ConfigMem.Inst_frame1_bit3.Q
+ sky130_fd_sc_hd__dlxtp_1
X_233_ Inst_S_CPU_IF_switch_matrix.N4BEG4 VGND VGND VPWR VPWR net210 sky130_fd_sc_hd__buf_1
XTAP_TAPCELL_ROW_6_76 VGND VPWR sky130_fd_sc_hd__tapvpwrvgnd_1
XFILLER_3_215 VGND VGND VPWR VPWR sky130_fd_sc_hd__decap_8
X_216_ Inst_S_CPU_IF_switch_matrix.N2BEG3 VGND VGND VPWR VPWR net187 sky130_fd_sc_hd__buf_1
X_147_ net16 net42 VGND VGND VPWR VPWR Inst_S_CPU_IF_ConfigMem.Inst_frame0_bit23.Q
+ sky130_fd_sc_hd__dlxtp_1
X_078_ net10 net36 VGND VGND VPWR VPWR Inst_S_CPU_IF_ConfigMem.Inst_frame2_bit18.Q
+ sky130_fd_sc_hd__dlxtp_1
X_001_ net62 net78 net85 net101 Inst_S_CPU_IF_ConfigMem.Inst_frame0_bit28.Q Inst_S_CPU_IF_ConfigMem.Inst_frame0_bit29.Q
+ VGND VGND VPWR VPWR net170 sky130_fd_sc_hd__mux4_1
XFILLER_7_340 VGND VGND VPWR VPWR sky130_fd_sc_hd__decap_8
XFILLER_7_10 VPWR VGND VPWR VGND sky130_ef_sc_hd__decap_12
Xinput90 SS4END[14] VGND VGND VPWR VPWR net101 sky130_fd_sc_hd__clkbuf_1
XPHY_EDGE_ROW_11_Right_11 VGND VGND VPWR VPWR sky130_fd_sc_hd__decap_3
XFILLER_4_387 VPWR VGND VPWR VGND sky130_ef_sc_hd__decap_12
XTAP_TAPCELL_ROW_3_55 VGND VPWR sky130_fd_sc_hd__tapvpwrvgnd_1
XFILLER_4_365 VGND VGND VPWR VPWR sky130_fd_sc_hd__fill_1
XFILLER_7_181 VGND VGND VPWR VPWR sky130_fd_sc_hd__fill_1
XTAP_TAPCELL_ROW_11_109 VGND VPWR sky130_fd_sc_hd__tapvpwrvgnd_1
XFILLER_1_335 VGND VGND VPWR VPWR sky130_fd_sc_hd__fill_1
Xoutput209 net220 VGND VGND VPWR VPWR NN4BEG[13] sky130_fd_sc_hd__buf_2
XFILLER_4_22 VGND VGND VPWR VPWR sky130_fd_sc_hd__decap_6
XFILLER_4_195 VGND VGND VPWR VPWR sky130_fd_sc_hd__fill_1
Xfanout43 net45 VGND VGND VPWR VPWR net43 sky130_fd_sc_hd__buf_2
X_180_ net16 VGND VGND VPWR VPWR net127 sky130_fd_sc_hd__buf_1
XTAP_TAPCELL_ROW_9_98 VGND VPWR sky130_fd_sc_hd__tapvpwrvgnd_1
XFILLER_9_276 VGND VGND VPWR VPWR sky130_fd_sc_hd__decap_4
XFILLER_1_198 VGND VGND VPWR VPWR sky130_fd_sc_hd__fill_1
XTAP_TAPCELL_ROW_0_34 VGND VPWR sky130_fd_sc_hd__tapvpwrvgnd_1
XPHY_EDGE_ROW_3_Left_15 VGND VGND VPWR VPWR sky130_fd_sc_hd__decap_3
XFILLER_3_408 VGND VGND VPWR VPWR sky130_fd_sc_hd__fill_2
X_232_ Inst_S_CPU_IF_switch_matrix.N4BEG3 VGND VGND VPWR VPWR net209 sky130_fd_sc_hd__buf_1
XFILLER_6_213 VGND VGND VPWR VPWR sky130_fd_sc_hd__fill_1
X_094_ net23 net38 VGND VGND VPWR VPWR Inst_S_CPU_IF_ConfigMem.Inst_frame1_bit2.Q
+ sky130_fd_sc_hd__dlxtp_1
X_163_ net29 VGND VGND VPWR VPWR net140 sky130_fd_sc_hd__buf_1
XFILLER_10_43 VGND VGND VPWR VPWR sky130_fd_sc_hd__fill_2
XFILLER_3_249 VGND VGND VPWR VPWR sky130_fd_sc_hd__decap_6
X_077_ net9 net36 VGND VGND VPWR VPWR Inst_S_CPU_IF_ConfigMem.Inst_frame2_bit17.Q
+ sky130_fd_sc_hd__dlxtp_1
XTAP_TAPCELL_ROW_6_77 VGND VPWR sky130_fd_sc_hd__tapvpwrvgnd_1
X_215_ Inst_S_CPU_IF_switch_matrix.N2BEG2 VGND VGND VPWR VPWR net186 sky130_fd_sc_hd__clkbuf_1
XFILLER_2_282 VGND VGND VPWR VPWR sky130_fd_sc_hd__fill_2
X_146_ net15 net44 VGND VGND VPWR VPWR Inst_S_CPU_IF_ConfigMem.Inst_frame0_bit22.Q
+ sky130_fd_sc_hd__dlxtp_1
XFILLER_7_77 VGND VGND VPWR VPWR sky130_fd_sc_hd__fill_1
XFILLER_7_55 VGND VGND VPWR VPWR sky130_fd_sc_hd__fill_1
XFILLER_7_22 VGND VGND VPWR VPWR sky130_fd_sc_hd__decap_4
X_000_ net63 net79 net86 net102 Inst_S_CPU_IF_ConfigMem.Inst_frame0_bit30.Q Inst_S_CPU_IF_ConfigMem.Inst_frame0_bit31.Q
+ VGND VGND VPWR VPWR net171 sky130_fd_sc_hd__mux4_1
Xinput80 S4END[5] VGND VGND VPWR VPWR net91 sky130_fd_sc_hd__buf_1
Xinput91 SS4END[15] VGND VGND VPWR VPWR net102 sky130_fd_sc_hd__buf_1
X_129_ net28 net42 VGND VGND VPWR VPWR Inst_S_CPU_IF_ConfigMem.Inst_frame0_bit5.Q
+ sky130_fd_sc_hd__dlxtp_1
XFILLER_8_116 VGND VGND VPWR VPWR sky130_fd_sc_hd__decap_4
XFILLER_4_399 VGND VGND VPWR VPWR sky130_fd_sc_hd__decap_4
XTAP_TAPCELL_ROW_3_56 VGND VPWR sky130_fd_sc_hd__tapvpwrvgnd_1
XFILLER_4_141 VGND VGND VPWR VPWR sky130_fd_sc_hd__decap_6
Xfanout44 net45 VGND VGND VPWR VPWR net44 sky130_fd_sc_hd__buf_2
XTAP_TAPCELL_ROW_9_99 VGND VPWR sky130_fd_sc_hd__tapvpwrvgnd_1
XFILLER_9_211 VGND VGND VPWR VPWR sky130_fd_sc_hd__fill_2
XFILLER_1_122 VGND VGND VPWR VPWR sky130_fd_sc_hd__fill_1
XTAP_TAPCELL_ROW_0_24 VGND VPWR sky130_fd_sc_hd__tapvpwrvgnd_1
XTAP_TAPCELL_ROW_0_35 VGND VPWR sky130_fd_sc_hd__tapvpwrvgnd_1
X_093_ net12 net38 VGND VGND VPWR VPWR Inst_S_CPU_IF_ConfigMem.Inst_frame1_bit1.Q
+ sky130_fd_sc_hd__dlxtp_1
X_231_ Inst_S_CPU_IF_switch_matrix.N4BEG2 VGND VGND VPWR VPWR net208 sky130_fd_sc_hd__clkbuf_1
X_162_ net28 VGND VGND VPWR VPWR net139 sky130_fd_sc_hd__clkbuf_1
XFILLER_1_57 VGND VGND VPWR VPWR sky130_fd_sc_hd__decap_3
Xinput1 FrameData[0] VGND VGND VPWR VPWR net1 sky130_fd_sc_hd__buf_1
X_214_ Inst_S_CPU_IF_switch_matrix.N2BEG1 VGND VGND VPWR VPWR net185 sky130_fd_sc_hd__buf_1
XTAP_TAPCELL_ROW_6_78 VGND VPWR sky130_fd_sc_hd__tapvpwrvgnd_1
X_076_ net8 net35 VGND VGND VPWR VPWR Inst_S_CPU_IF_ConfigMem.Inst_frame2_bit16.Q
+ sky130_fd_sc_hd__dlxtp_1
X_145_ net14 net44 VGND VGND VPWR VPWR Inst_S_CPU_IF_ConfigMem.Inst_frame0_bit21.Q
+ sky130_fd_sc_hd__dlxtp_1
Xoutput190 net201 VGND VGND VPWR VPWR N4BEG[10] sky130_fd_sc_hd__buf_2
X_059_ net75 net53 Inst_S_CPU_IF_ConfigMem.Inst_frame2_bit20.Q VGND VGND VPWR VPWR
+ Inst_S_CPU_IF_switch_matrix.N2BEG4 sky130_fd_sc_hd__mux2_1
X_128_ net27 net42 VGND VGND VPWR VPWR Inst_S_CPU_IF_ConfigMem.Inst_frame0_bit4.Q
+ sky130_fd_sc_hd__dlxtp_1
Xinput92 SS4END[1] VGND VGND VPWR VPWR net103 sky130_fd_sc_hd__buf_1
Xinput70 S4END[10] VGND VGND VPWR VPWR net81 sky130_fd_sc_hd__buf_1
Xinput81 S4END[6] VGND VGND VPWR VPWR net92 sky130_fd_sc_hd__clkbuf_1
XTAP_TAPCELL_ROW_3_57 VGND VPWR sky130_fd_sc_hd__tapvpwrvgnd_1
XPHY_EDGE_ROW_9_Right_9 VGND VGND VPWR VPWR sky130_fd_sc_hd__decap_3
XFILLER_7_194 VGND VGND VPWR VPWR sky130_fd_sc_hd__decap_8
XFILLER_1_337 VGND VGND VPWR VPWR sky130_fd_sc_hd__decap_8
XFILLER_4_79 VGND VGND VPWR VPWR sky130_fd_sc_hd__decap_4
XFILLER_4_197 VGND VGND VPWR VPWR sky130_fd_sc_hd__fill_1