*SPEF "ieee 1481-1999"
*DESIGN "S_WARMBOOT"
*DATE "08:54:48 Monday February 24, 2025"
*VENDOR "The OpenROAD Project"
*PROGRAM "OpenROAD"
*VERSION "87af90f72f3f9be1fdfa1d886f0dd8d8b8f34694"
*DESIGN_FLOW "NAME_SCOPE LOCAL" "PIN_CAP NONE"
*DIVIDER /
*DELIMITER :
*BUS_DELIMITER []
*T_UNIT 1 NS
*C_UNIT 1 PF
*R_UNIT 1 OHM
*L_UNIT 1 HENRY

*NAME_MAP
*1 BOOT_top
*2 net166
*3 FrameData[0]
*4 FrameData[10]
*5 FrameData[11]
*6 FrameData[12]
*7 FrameData[13]
*8 FrameData[14]
*9 FrameData[15]
*10 FrameData[16]
*11 FrameData[17]
*12 FrameData[18]
*13 FrameData[19]
*14 FrameData[1]
*15 FrameData[20]
*16 FrameData[21]
*17 FrameData[22]
*18 FrameData[23]
*19 FrameData[24]
*20 FrameData[25]
*21 FrameData[26]
*22 FrameData[27]
*23 FrameData[28]
*24 FrameData[29]
*25 FrameData[2]
*26 FrameData[30]
*27 FrameData[31]
*28 FrameData[3]
*29 FrameData[4]
*30 FrameData[5]
*31 FrameData[6]
*32 FrameData[7]
*33 FrameData[8]
*34 FrameData[9]
*35 FrameData_O[0]
*36 FrameData_O[10]
*37 FrameData_O[11]
*38 FrameData_O[12]
*39 FrameData_O[13]
*40 FrameData_O[14]
*41 FrameData_O[15]
*42 FrameData_O[16]
*43 FrameData_O[17]
*44 FrameData_O[18]
*45 FrameData_O[19]
*46 FrameData_O[1]
*47 FrameData_O[20]
*48 FrameData_O[21]
*49 FrameData_O[22]
*50 FrameData_O[23]
*51 FrameData_O[24]
*52 FrameData_O[25]
*53 FrameData_O[26]
*54 FrameData_O[27]
*55 FrameData_O[28]
*56 FrameData_O[29]
*57 FrameData_O[2]
*58 FrameData_O[30]
*59 FrameData_O[31]
*60 FrameData_O[3]
*61 FrameData_O[4]
*62 FrameData_O[5]
*63 FrameData_O[6]
*64 FrameData_O[7]
*65 FrameData_O[8]
*66 FrameData_O[9]
*67 FrameStrobe[0]
*68 FrameStrobe[10]
*69 FrameStrobe[11]
*70 FrameStrobe[12]
*71 FrameStrobe[13]
*72 FrameStrobe[14]
*73 FrameStrobe[15]
*74 FrameStrobe[16]
*75 FrameStrobe[17]
*76 FrameStrobe[18]
*77 FrameStrobe[19]
*78 FrameStrobe[1]
*79 FrameStrobe[2]
*80 FrameStrobe[3]
*81 FrameStrobe[4]
*82 FrameStrobe[5]
*83 FrameStrobe[6]
*84 FrameStrobe[7]
*85 FrameStrobe[8]
*86 FrameStrobe[9]
*87 FrameStrobe_O[0]
*88 FrameStrobe_O[10]
*89 FrameStrobe_O[11]
*90 FrameStrobe_O[12]
*91 FrameStrobe_O[13]
*92 FrameStrobe_O[14]
*93 FrameStrobe_O[15]
*94 FrameStrobe_O[16]
*95 FrameStrobe_O[17]
*96 FrameStrobe_O[18]
*97 FrameStrobe_O[19]
*98 FrameStrobe_O[1]
*99 FrameStrobe_O[2]
*100 FrameStrobe_O[3]
*101 FrameStrobe_O[4]
*102 FrameStrobe_O[5]
*103 FrameStrobe_O[6]
*104 FrameStrobe_O[7]
*105 FrameStrobe_O[8]
*106 FrameStrobe_O[9]
*107 N1BEG[0]
*108 N1BEG[1]
*109 N1BEG[2]
*110 N1BEG[3]
*111 N2BEG[0]
*112 N2BEG[1]
*113 N2BEG[2]
*114 N2BEG[3]
*115 N2BEG[4]
*116 N2BEG[5]
*117 N2BEG[6]
*118 N2BEG[7]
*119 N2BEGb[0]
*120 N2BEGb[1]
*121 N2BEGb[2]
*122 N2BEGb[3]
*123 N2BEGb[4]
*124 N2BEGb[5]
*125 N2BEGb[6]
*126 N2BEGb[7]
*127 N4BEG[0]
*128 N4BEG[10]
*129 N4BEG[11]
*130 N4BEG[12]
*131 N4BEG[13]
*132 N4BEG[14]
*133 N4BEG[15]
*134 N4BEG[1]
*135 N4BEG[2]
*136 N4BEG[3]
*137 N4BEG[4]
*138 N4BEG[5]
*139 N4BEG[6]
*140 N4BEG[7]
*141 N4BEG[8]
*142 N4BEG[9]
*143 NN4BEG[0]
*144 NN4BEG[10]
*145 NN4BEG[11]
*146 NN4BEG[12]
*147 NN4BEG[13]
*148 NN4BEG[14]
*149 NN4BEG[15]
*150 NN4BEG[1]
*151 NN4BEG[2]
*152 NN4BEG[3]
*153 NN4BEG[4]
*154 NN4BEG[5]
*155 NN4BEG[6]
*156 NN4BEG[7]
*157 NN4BEG[8]
*158 NN4BEG[9]
*159 RESET_top
*160 S1END[0]
*161 S1END[1]
*162 S1END[2]
*163 S1END[3]
*164 S2END[0]
*165 S2END[1]
*166 S2END[2]
*167 S2END[3]
*168 S2END[4]
*169 S2END[5]
*170 S2END[6]
*171 S2END[7]
*172 S2MID[0]
*173 S2MID[1]
*174 S2MID[2]
*175 S2MID[3]
*176 S2MID[4]
*177 S2MID[5]
*178 S2MID[6]
*179 S2MID[7]
*180 S4END[0]
*181 S4END[10]
*182 S4END[11]
*183 S4END[12]
*184 S4END[13]
*185 S4END[14]
*186 S4END[15]
*187 S4END[1]
*188 S4END[2]
*189 S4END[3]
*190 S4END[4]
*191 S4END[5]
*192 S4END[6]
*193 S4END[7]
*194 S4END[8]
*195 S4END[9]
*196 SLOT_top0
*197 SLOT_top1
*198 SLOT_top2
*199 SLOT_top3
*200 SS4END[0]
*201 SS4END[10]
*202 SS4END[11]
*203 SS4END[12]
*204 SS4END[13]
*205 SS4END[14]
*206 SS4END[15]
*207 SS4END[1]
*208 SS4END[2]
*209 SS4END[3]
*210 SS4END[4]
*211 SS4END[5]
*212 SS4END[6]
*213 SS4END[7]
*214 SS4END[8]
*215 SS4END[9]
*216 UserCLK
*217 UserCLKo
*220 Inst_S_WARMBOOT_ConfigMem\.Inst_frame0_bit13\.Q
*221 Inst_S_WARMBOOT_ConfigMem\.Inst_frame0_bit14\.Q
*222 Inst_S_WARMBOOT_ConfigMem\.Inst_frame0_bit15\.Q
*223 Inst_S_WARMBOOT_ConfigMem\.Inst_frame0_bit16\.Q
*224 Inst_S_WARMBOOT_ConfigMem\.Inst_frame0_bit17\.Q
*225 Inst_S_WARMBOOT_ConfigMem\.Inst_frame0_bit18\.Q
*226 Inst_S_WARMBOOT_ConfigMem\.Inst_frame0_bit19\.Q
*227 Inst_S_WARMBOOT_ConfigMem\.Inst_frame0_bit20\.Q
*228 Inst_S_WARMBOOT_ConfigMem\.Inst_frame0_bit21\.Q
*229 Inst_S_WARMBOOT_ConfigMem\.Inst_frame0_bit22\.Q
*230 Inst_S_WARMBOOT_ConfigMem\.Inst_frame0_bit23\.Q
*231 Inst_S_WARMBOOT_ConfigMem\.Inst_frame0_bit24\.Q
*232 Inst_S_WARMBOOT_ConfigMem\.Inst_frame0_bit25\.Q
*233 Inst_S_WARMBOOT_ConfigMem\.Inst_frame0_bit26\.Q
*234 Inst_S_WARMBOOT_ConfigMem\.Inst_frame0_bit27\.Q
*235 Inst_S_WARMBOOT_ConfigMem\.Inst_frame0_bit28\.Q
*236 Inst_S_WARMBOOT_ConfigMem\.Inst_frame0_bit29\.Q
*237 Inst_S_WARMBOOT_ConfigMem\.Inst_frame0_bit30\.Q
*238 Inst_S_WARMBOOT_ConfigMem\.Inst_frame0_bit31\.Q
*239 Inst_S_WARMBOOT_switch_matrix\.N1BEG0
*240 Inst_S_WARMBOOT_switch_matrix\.N1BEG1
*241 Inst_S_WARMBOOT_switch_matrix\.N1BEG2
*242 Inst_S_WARMBOOT_switch_matrix\.N1BEG3
*243 _000_
*244 _001_
*245 _002_
*246 _003_
*247 _004_
*248 _005_
*249 _006_
*250 _007_
*251 _008_
*252 _009_
*253 _010_
*254 _011_
*255 _012_
*256 _013_
*257 _014_
*258 _015_
*259 _016_
*260 _017_
*261 _018_
*262 _019_
*263 _020_
*264 _021_
*265 _022_
*266 _023_
*267 _024_
*268 _025_
*269 _026_
*270 _027_
*271 _028_
*272 _029_
*273 net1
*274 net10
*275 net100
*276 net101
*277 net102
*278 net103
*279 net104
*280 net105
*281 net106
*282 net107
*283 net108
*284 net109
*285 net11
*286 net110
*287 net111
*288 net112
*289 net113
*290 net114
*291 net115
*292 net116
*293 net117
*294 net118
*295 net119
*296 net12
*297 net120
*298 net121
*299 net122
*300 net123
*301 net124
*302 net125
*303 net126
*304 net127
*305 net128
*306 net129
*307 net13
*308 net130
*309 net131
*310 net132
*311 net133
*312 net134
*313 net135
*314 net136
*315 net137
*316 net138
*317 net139
*318 net14
*319 net140
*320 net141
*321 net142
*322 net143
*323 net144
*324 net145
*325 net146
*326 net147
*327 net148
*328 net149
*329 net15
*330 net150
*331 net151
*332 net152
*333 net153
*334 net154
*335 net155
*336 net156
*337 net157
*338 net158
*339 net159
*340 net16
*341 net160
*342 net161
*343 net162
*344 net163
*345 net164
*346 net165
*347 net17
*348 net18
*349 net19
*350 net2
*351 net20
*352 net21
*353 net22
*354 net23
*355 net24
*356 net25
*357 net26
*358 net27
*359 net28
*360 net29
*361 net3
*362 net30
*363 net31
*364 net32
*365 net33
*366 net34
*367 net35
*368 net36
*369 net37
*370 net38
*371 net39
*372 net4
*373 net40
*374 net41
*375 net42
*376 net43
*377 net44
*378 net45
*379 net46
*380 net47
*381 net48
*382 net49
*383 net5
*384 net50
*385 net51
*386 net52
*387 net53
*388 net54
*389 net55
*390 net56
*391 net57
*392 net58
*393 net59
*394 net6
*395 net60
*396 net61
*397 net62
*398 net63
*399 net64
*400 net65
*401 net66
*402 net67
*403 net68
*404 net69
*405 net7
*406 net70
*407 net71
*408 net72
*409 net73
*410 net74
*411 net75
*412 net76
*413 net77
*414 net78
*415 net79
*416 net8
*417 net80
*418 net81
*419 net82
*420 net83
*421 net84
*422 net85
*423 net86
*424 net87
*425 net88
*426 net89
*427 net9
*428 net90
*429 net91
*430 net92
*431 net93
*432 net94
*433 net95
*434 net96
*435 net97
*436 net98
*437 net99
*438 ANTENNA_1
*439 ANTENNA_10
*440 ANTENNA_11
*441 ANTENNA_12
*442 ANTENNA_13
*443 ANTENNA_2
*444 ANTENNA_3
*445 ANTENNA_4
*446 ANTENNA_5
*447 ANTENNA_6
*448 ANTENNA_7
*449 ANTENNA_8
*450 ANTENNA_9
*451 FILLER_0_101
*452 FILLER_0_109
*453 FILLER_0_113
*454 FILLER_0_118
*455 FILLER_0_13
*456 FILLER_0_130
*457 FILLER_0_138
*458 FILLER_0_141
*459 FILLER_0_153
*460 FILLER_0_165
*461 FILLER_0_169
*462 FILLER_0_181
*463 FILLER_0_193
*464 FILLER_0_197
*465 FILLER_0_209
*466 FILLER_0_221
*467 FILLER_0_225
*468 FILLER_0_23
*469 FILLER_0_237
*470 FILLER_0_249
*471 FILLER_0_253
*472 FILLER_0_265
*473 FILLER_0_27
*474 FILLER_0_277
*475 FILLER_0_281
*476 FILLER_0_29
*477 FILLER_0_293
*478 FILLER_0_305
*479 FILLER_0_309
*480 FILLER_0_321
*481 FILLER_0_333
*482 FILLER_0_337
*483 FILLER_0_349
*484 FILLER_0_361
*485 FILLER_0_365
*486 FILLER_0_377
*487 FILLER_0_389
*488 FILLER_0_39
*489 FILLER_0_393
*490 FILLER_0_397
*491 FILLER_0_55
*492 FILLER_0_57
*493 FILLER_0_65
*494 FILLER_0_71
*495 FILLER_0_83
*496 FILLER_0_89
*497 FILLER_10_106
*498 FILLER_10_110
*499 FILLER_10_115
*500 FILLER_10_121
*501 FILLER_10_125
*502 FILLER_10_130
*503 FILLER_10_134
*504 FILLER_10_139
*505 FILLER_10_148
*506 FILLER_10_157
*507 FILLER_10_161
*508 FILLER_10_166
*509 FILLER_10_174
*510 FILLER_10_194
*511 FILLER_10_205
*512 FILLER_10_209
*513 FILLER_10_21
*514 FILLER_10_232
*515 FILLER_10_250
*516 FILLER_10_256
*517 FILLER_10_264
*518 FILLER_10_268
*519 FILLER_10_280
*520 FILLER_10_285
*521 FILLER_10_29
*522 FILLER_10_297
*523 FILLER_10_301
*524 FILLER_10_307
*525 FILLER_10_312
*526 FILLER_10_324
*527 FILLER_10_332
*528 FILLER_10_338
*529 FILLER_10_342
*530 FILLER_10_353
*531 FILLER_10_361
*532 FILLER_10_37
*533 FILLER_10_372
*534 FILLER_10_379
*535 FILLER_10_385
*536 FILLER_10_391
*537 FILLER_10_399
*538 FILLER_10_410
*539 FILLER_10_43
*540 FILLER_10_49
*541 FILLER_10_59
*542 FILLER_10_64
*543 FILLER_10_70
*544 FILLER_10_76
*545 FILLER_10_89
*546 FILLER_10_94
*547 FILLER_11_113
*548 FILLER_11_141
*549 FILLER_11_169
*550 FILLER_11_175
*551 FILLER_11_185
*552 FILLER_11_19
*553 FILLER_11_197
*554 FILLER_11_207
*555 FILLER_11_222
*556 FILLER_11_271
*557 FILLER_11_279
*558 FILLER_11_281
*559 FILLER_11_289
*560 FILLER_11_29
*561 FILLER_11_306
*562 FILLER_11_323
*563 FILLER_11_335
*564 FILLER_11_337
*565 FILLER_11_362
*566 FILLER_11_389
*567 FILLER_11_409
*568 FILLER_11_57
*569 FILLER_11_85
*570 FILLER_1_105
*571 FILLER_1_111
*572 FILLER_1_113
*573 FILLER_1_125
*574 FILLER_1_137
*575 FILLER_1_149
*576 FILLER_1_15
*577 FILLER_1_161
*578 FILLER_1_167
*579 FILLER_1_187
*580 FILLER_1_195
*581 FILLER_1_211
*582 FILLER_1_219
*583 FILLER_1_247
*584 FILLER_1_265
*585 FILLER_1_27
*586 FILLER_1_278
*587 FILLER_1_281
*588 FILLER_1_289
*589 FILLER_1_294
*590 FILLER_1_3
*591 FILLER_1_302
*592 FILLER_1_312
*593 FILLER_1_321
*594 FILLER_1_333
*595 FILLER_1_337
*596 FILLER_1_342
*597 FILLER_1_354
*598 FILLER_1_359
*599 FILLER_1_363
*600 FILLER_1_367
*601 FILLER_1_379
*602 FILLER_1_386
*603 FILLER_1_39
*604 FILLER_1_393
*605 FILLER_1_401
*606 FILLER_1_51
*607 FILLER_1_55
*608 FILLER_1_57
*609 FILLER_1_69
*610 FILLER_1_81
*611 FILLER_1_93
*612 FILLER_2_109
*613 FILLER_2_117
*614 FILLER_2_121
*615 FILLER_2_133
*616 FILLER_2_139
*617 FILLER_2_141
*618 FILLER_2_15
*619 FILLER_2_153
*620 FILLER_2_165
*621 FILLER_2_177
*622 FILLER_2_189
*623 FILLER_2_195
*624 FILLER_2_197
*625 FILLER_2_209
*626 FILLER_2_221
*627 FILLER_2_233
*628 FILLER_2_245
*629 FILLER_2_251
*630 FILLER_2_253
*631 FILLER_2_265
*632 FILLER_2_27
*633 FILLER_2_277
*634 FILLER_2_289
*635 FILLER_2_29
*636 FILLER_2_3
*637 FILLER_2_301
*638 FILLER_2_307
*639 FILLER_2_309
*640 FILLER_2_321
*641 FILLER_2_333
*642 FILLER_2_345
*643 FILLER_2_357
*644 FILLER_2_363
*645 FILLER_2_365
*646 FILLER_2_377
*647 FILLER_2_389
*648 FILLER_2_401
*649 FILLER_2_409
*650 FILLER_2_41
*651 FILLER_2_47
*652 FILLER_2_52
*653 FILLER_2_64
*654 FILLER_2_76
*655 FILLER_2_85
*656 FILLER_2_97
*657 FILLER_3_105
*658 FILLER_3_111
*659 FILLER_3_113
*660 FILLER_3_125
*661 FILLER_3_137
*662 FILLER_3_15
*663 FILLER_3_152
*664 FILLER_3_164
*665 FILLER_3_173
*666 FILLER_3_179
*667 FILLER_3_183
*668 FILLER_3_195
*669 FILLER_3_207
*670 FILLER_3_219
*671 FILLER_3_223
*672 FILLER_3_225
*673 FILLER_3_23
*674 FILLER_3_237
*675 FILLER_3_249
*676 FILLER_3_261
*677 FILLER_3_265
*678 FILLER_3_277
*679 FILLER_3_281
*680 FILLER_3_286
*681 FILLER_3_292
*682 FILLER_3_3
*683 FILLER_3_30
*684 FILLER_3_304
*685 FILLER_3_316
*686 FILLER_3_328
*687 FILLER_3_337
*688 FILLER_3_342
*689 FILLER_3_354
*690 FILLER_3_366
*691 FILLER_3_378
*692 FILLER_3_390
*693 FILLER_3_397
*694 FILLER_3_405
*695 FILLER_3_42
*696 FILLER_3_57
*697 FILLER_3_69
*698 FILLER_3_75
*699 FILLER_3_81
*700 FILLER_3_93
*701 FILLER_4_107
*702 FILLER_4_122
*703 FILLER_4_137
*704 FILLER_4_15
*705 FILLER_4_156
*706 FILLER_4_160
*707 FILLER_4_176
*708 FILLER_4_187
*709 FILLER_4_209
*710 FILLER_4_245
*711 FILLER_4_251
*712 FILLER_4_253
*713 FILLER_4_257
*714 FILLER_4_27
*715 FILLER_4_272
*716 FILLER_4_284
*717 FILLER_4_29
*718 FILLER_4_3
*719 FILLER_4_312
*720 FILLER_4_316
*721 FILLER_4_328
*722 FILLER_4_340
*723 FILLER_4_352
*724 FILLER_4_356
*725 FILLER_4_365
*726 FILLER_4_371
*727 FILLER_4_375
*728 FILLER_4_379
*729 FILLER_4_387
*730 FILLER_4_392
*731 FILLER_4_400
*732 FILLER_4_41
*733 FILLER_4_412
*734 FILLER_4_70
*735 FILLER_4_82
*736 FILLER_4_85
*737 FILLER_4_97
*738 FILLER_5_106
*739 FILLER_5_113
*740 FILLER_5_125
*741 FILLER_5_137
*742 FILLER_5_149
*743 FILLER_5_161
*744 FILLER_5_167
*745 FILLER_5_169
*746 FILLER_5_18
*747 FILLER_5_181
*748 FILLER_5_193
*749 FILLER_5_205
*750 FILLER_5_217
*751 FILLER_5_223
*752 FILLER_5_225
*753 FILLER_5_237
*754 FILLER_5_249
*755 FILLER_5_261
*756 FILLER_5_273
*757 FILLER_5_277
*758 FILLER_5_281
*759 FILLER_5_293
*760 FILLER_5_30
*761 FILLER_5_305
*762 FILLER_5_317
*763 FILLER_5_329
*764 FILLER_5_335
*765 FILLER_5_337
*766 FILLER_5_344
*767 FILLER_5_348
*768 FILLER_5_355
*769 FILLER_5_367
*770 FILLER_5_37
*771 FILLER_5_379
*772 FILLER_5_391
*773 FILLER_5_393
*774 FILLER_5_405
*775 FILLER_5_409
*776 FILLER_5_49
*777 FILLER_5_55
*778 FILLER_5_57
*779 FILLER_5_6
*780 FILLER_5_69
*781 FILLER_5_75
*782 FILLER_5_86
*783 FILLER_5_98
*784 FILLER_6_105
*785 FILLER_6_114
*786 FILLER_6_138
*787 FILLER_6_141
*788 FILLER_6_153
*789 FILLER_6_165
*790 FILLER_6_171
*791 FILLER_6_181
*792 FILLER_6_193
*793 FILLER_6_197
*794 FILLER_6_205
*795 FILLER_6_209
*796 FILLER_6_21
*797 FILLER_6_221
*798 FILLER_6_233
*799 FILLER_6_241
*800 FILLER_6_25
*801 FILLER_6_251
*802 FILLER_6_265
*803 FILLER_6_269
*804 FILLER_6_29
*805 FILLER_6_291
*806 FILLER_6_299
*807 FILLER_6_306
*808 FILLER_6_312
*809 FILLER_6_324
*810 FILLER_6_336
*811 FILLER_6_348
*812 FILLER_6_360
*813 FILLER_6_365
*814 FILLER_6_377
*815 FILLER_6_389
*816 FILLER_6_401
*817 FILLER_6_64
*818 FILLER_6_76
*819 FILLER_6_85
*820 FILLER_6_9
*821 FILLER_7_111
*822 FILLER_7_113
*823 FILLER_7_125
*824 FILLER_7_137
*825 FILLER_7_145
*826 FILLER_7_161
*827 FILLER_7_167
*828 FILLER_7_169
*829 FILLER_7_175
*830 FILLER_7_198
*831 FILLER_7_231
*832 FILLER_7_243
*833 FILLER_7_255
*834 FILLER_7_267
*835 FILLER_7_279
*836 FILLER_7_281
*837 FILLER_7_293
*838 FILLER_7_305
*839 FILLER_7_31
*840 FILLER_7_320
*841 FILLER_7_324
*842 FILLER_7_337
*843 FILLER_7_349
*844 FILLER_7_355
*845 FILLER_7_359
*846 FILLER_7_371
*847 FILLER_7_383
*848 FILLER_7_391
*849 FILLER_7_400
*850 FILLER_7_43
*851 FILLER_7_51
*852 FILLER_7_57
*853 FILLER_7_62
*854 FILLER_7_74
*855 FILLER_7_86
*856 FILLER_7_9
*857 FILLER_7_95
*858 FILLER_7_99
*859 FILLER_8_109
*860 FILLER_8_12
*861 FILLER_8_127
*862 FILLER_8_139
*863 FILLER_8_141
*864 FILLER_8_153
*865 FILLER_8_165
*866 FILLER_8_177
*867 FILLER_8_189
*868 FILLER_8_195
*869 FILLER_8_197
*870 FILLER_8_209
*871 FILLER_8_221
*872 FILLER_8_233
*873 FILLER_8_24
*874 FILLER_8_245
*875 FILLER_8_251
*876 FILLER_8_253
*877 FILLER_8_261
*878 FILLER_8_274
*879 FILLER_8_29
*880 FILLER_8_301
*881 FILLER_8_307
*882 FILLER_8_309
*883 FILLER_8_321
*884 FILLER_8_333
*885 FILLER_8_345
*886 FILLER_8_357
*887 FILLER_8_363
*888 FILLER_8_365
*889 FILLER_8_377
*890 FILLER_8_389
*891 FILLER_8_396
*892 FILLER_8_400
*893 FILLER_8_41
*894 FILLER_8_53
*895 FILLER_8_65
*896 FILLER_8_80
*897 FILLER_8_85
*898 FILLER_8_97
*899 FILLER_9_107
*900 FILLER_9_111
*901 FILLER_9_113
*902 FILLER_9_12
*903 FILLER_9_125
*904 FILLER_9_133
*905 FILLER_9_149
*906 FILLER_9_159
*907 FILLER_9_181
*908 FILLER_9_189
*909 FILLER_9_201
*910 FILLER_9_213
*911 FILLER_9_217
*912 FILLER_9_223
*913 FILLER_9_225
*914 FILLER_9_237
*915 FILLER_9_24
*916 FILLER_9_249
*917 FILLER_9_261
*918 FILLER_9_268
*919 FILLER_9_281
*920 FILLER_9_293
*921 FILLER_9_305
*922 FILLER_9_313
*923 FILLER_9_319
*924 FILLER_9_331
*925 FILLER_9_335
*926 FILLER_9_337
*927 FILLER_9_349
*928 FILLER_9_36
*929 FILLER_9_361
*930 FILLER_9_373
*931 FILLER_9_385
*932 FILLER_9_391
*933 FILLER_9_393
*934 FILLER_9_397
*935 FILLER_9_48
*936 FILLER_9_57
*937 FILLER_9_69
*938 FILLER_9_75
*939 FILLER_9_84
*940 FILLER_9_90
*941 PHY_EDGE_ROW_0_Left_12
*942 PHY_EDGE_ROW_0_Right_0
*943 PHY_EDGE_ROW_10_Left_22
*944 PHY_EDGE_ROW_10_Right_10
*945 PHY_EDGE_ROW_11_Left_23
*946 PHY_EDGE_ROW_11_Right_11
*947 PHY_EDGE_ROW_1_Left_13
*948 PHY_EDGE_ROW_1_Right_1
*949 PHY_EDGE_ROW_2_Left_14
*950 PHY_EDGE_ROW_2_Right_2
*951 PHY_EDGE_ROW_3_Left_15
*952 PHY_EDGE_ROW_3_Right_3
*953 PHY_EDGE_ROW_4_Left_16
*954 PHY_EDGE_ROW_4_Right_4
*955 PHY_EDGE_ROW_5_Left_17
*956 PHY_EDGE_ROW_5_Right_5
*957 PHY_EDGE_ROW_6_Left_18
*958 PHY_EDGE_ROW_6_Right_6
*959 PHY_EDGE_ROW_7_Left_19
*960 PHY_EDGE_ROW_7_Right_7
*961 PHY_EDGE_ROW_8_Left_20
*962 PHY_EDGE_ROW_8_Right_8
*963 PHY_EDGE_ROW_9_Left_21
*964 PHY_EDGE_ROW_9_Right_9
*965 S_WARMBOOT_164
*966 TAP_TAPCELL_ROW_0_24
*967 TAP_TAPCELL_ROW_0_25
*968 TAP_TAPCELL_ROW_0_26
*969 TAP_TAPCELL_ROW_0_27
*970 TAP_TAPCELL_ROW_0_28
*971 TAP_TAPCELL_ROW_0_29
*972 TAP_TAPCELL_ROW_0_30
*973 TAP_TAPCELL_ROW_0_31
*974 TAP_TAPCELL_ROW_0_32
*975 TAP_TAPCELL_ROW_0_33
*976 TAP_TAPCELL_ROW_0_34
*977 TAP_TAPCELL_ROW_0_35
*978 TAP_TAPCELL_ROW_0_36
*979 TAP_TAPCELL_ROW_0_37
*980 TAP_TAPCELL_ROW_10_101
*981 TAP_TAPCELL_ROW_10_102
*982 TAP_TAPCELL_ROW_10_103
*983 TAP_TAPCELL_ROW_10_104
*984 TAP_TAPCELL_ROW_10_105
*985 TAP_TAPCELL_ROW_10_106
*986 TAP_TAPCELL_ROW_10_107
*987 TAP_TAPCELL_ROW_11_108
*988 TAP_TAPCELL_ROW_11_109
*989 TAP_TAPCELL_ROW_11_110
*990 TAP_TAPCELL_ROW_11_111
*991 TAP_TAPCELL_ROW_11_112
*992 TAP_TAPCELL_ROW_11_113
*993 TAP_TAPCELL_ROW_11_114
*994 TAP_TAPCELL_ROW_11_115
*995 TAP_TAPCELL_ROW_11_116
*996 TAP_TAPCELL_ROW_11_117
*997 TAP_TAPCELL_ROW_11_118
*998 TAP_TAPCELL_ROW_11_119
*999 TAP_TAPCELL_ROW_11_120
*1000 TAP_TAPCELL_ROW_11_121
*1001 TAP_TAPCELL_ROW_1_38
*1002 TAP_TAPCELL_ROW_1_39
*1003 TAP_TAPCELL_ROW_1_40
*1004 TAP_TAPCELL_ROW_1_41
*1005 TAP_TAPCELL_ROW_1_42
*1006 TAP_TAPCELL_ROW_1_43
*1007 TAP_TAPCELL_ROW_1_44
*1008 TAP_TAPCELL_ROW_2_45
*1009 TAP_TAPCELL_ROW_2_46
*1010 TAP_TAPCELL_ROW_2_47
*1011 TAP_TAPCELL_ROW_2_48
*1012 TAP_TAPCELL_ROW_2_49
*1013 TAP_TAPCELL_ROW_2_50
*1014 TAP_TAPCELL_ROW_2_51
*1015 TAP_TAPCELL_ROW_3_52
*1016 TAP_TAPCELL_ROW_3_53
*1017 TAP_TAPCELL_ROW_3_54
*1018 TAP_TAPCELL_ROW_3_55
*1019 TAP_TAPCELL_ROW_3_56
*1020 TAP_TAPCELL_ROW_3_57
*1021 TAP_TAPCELL_ROW_3_58
*1022 TAP_TAPCELL_ROW_4_59
*1023 TAP_TAPCELL_ROW_4_60
*1024 TAP_TAPCELL_ROW_4_61
*1025 TAP_TAPCELL_ROW_4_62
*1026 TAP_TAPCELL_ROW_4_63
*1027 TAP_TAPCELL_ROW_4_64
*1028 TAP_TAPCELL_ROW_4_65
*1029 TAP_TAPCELL_ROW_5_66
*1030 TAP_TAPCELL_ROW_5_67
*1031 TAP_TAPCELL_ROW_5_68
*1032 TAP_TAPCELL_ROW_5_69
*1033 TAP_TAPCELL_ROW_5_70
*1034 TAP_TAPCELL_ROW_5_71
*1035 TAP_TAPCELL_ROW_5_72
*1036 TAP_TAPCELL_ROW_6_73
*1037 TAP_TAPCELL_ROW_6_74
*1038 TAP_TAPCELL_ROW_6_75
*1039 TAP_TAPCELL_ROW_6_76
*1040 TAP_TAPCELL_ROW_6_77
*1041 TAP_TAPCELL_ROW_6_78
*1042 TAP_TAPCELL_ROW_6_79
*1043 TAP_TAPCELL_ROW_7_80
*1044 TAP_TAPCELL_ROW_7_81
*1045 TAP_TAPCELL_ROW_7_82
*1046 TAP_TAPCELL_ROW_7_83
*1047 TAP_TAPCELL_ROW_7_84
*1048 TAP_TAPCELL_ROW_7_85
*1049 TAP_TAPCELL_ROW_7_86
*1050 TAP_TAPCELL_ROW_8_87
*1051 TAP_TAPCELL_ROW_8_88
*1052 TAP_TAPCELL_ROW_8_89
*1053 TAP_TAPCELL_ROW_8_90
*1054 TAP_TAPCELL_ROW_8_91
*1055 TAP_TAPCELL_ROW_8_92
*1056 TAP_TAPCELL_ROW_8_93
*1057 TAP_TAPCELL_ROW_9_100
*1058 TAP_TAPCELL_ROW_9_94
*1059 TAP_TAPCELL_ROW_9_95
*1060 TAP_TAPCELL_ROW_9_96
*1061 TAP_TAPCELL_ROW_9_97
*1062 TAP_TAPCELL_ROW_9_98
*1063 TAP_TAPCELL_ROW_9_99
*1064 _030_
*1065 _031_
*1066 _032_
*1067 _033_
*1068 _034_
*1069 _035_
*1070 _036_
*1071 _037_
*1072 _038_
*1073 _039_
*1074 _040_
*1075 _041_
*1076 _042_
*1077 _043_
*1078 _044_
*1079 _045_
*1080 _046_
*1081 _047_
*1082 _048_
*1083 _049_
*1084 _050_
*1085 _051_
*1086 _052_
*1087 _053_
*1088 _054_
*1089 _055_
*1090 _056_
*1091 _057_
*1092 _058_
*1093 _059_
*1094 _060_
*1095 _061_
*1096 _062_
*1097 _063_
*1098 _064_
*1099 _065_
*1100 _066_
*1101 _067_
*1102 _068_
*1103 _069_
*1104 _070_
*1105 _071_
*1106 _072_
*1107 _073_
*1108 _074_
*1109 _075_
*1110 _076_
*1111 _077_
*1112 _078_
*1113 _079_
*1114 _080_
*1115 _081_
*1116 _082_
*1117 _083_
*1118 _084_
*1119 _085_
*1120 _086_
*1121 _087_
*1122 _089_
*1123 _090_
*1124 _091_
*1125 _092_
*1126 _093_
*1127 _094_
*1128 _095_
*1129 _096_
*1130 _097_
*1131 _098_
*1132 _099_
*1133 _100_
*1134 _101_
*1135 _102_
*1136 _103_
*1137 _104_
*1138 _105_
*1139 _106_
*1140 _107_
*1141 _108_
*1142 _109_
*1143 _110_
*1144 _111_
*1145 _112_
*1146 _113_
*1147 _114_
*1148 _115_
*1149 _116_
*1150 _117_
*1151 _118_
*1152 _119_
*1153 _120_
*1154 _121_
*1155 _122_
*1156 _123_
*1157 _124_
*1158 _125_
*1159 _126_
*1160 _127_
*1161 _128_
*1162 _129_
*1163 _130_
*1164 _131_
*1165 _132_
*1166 _133_
*1167 _134_
*1168 _135_
*1169 _136_
*1170 _137_
*1171 _138_
*1172 _139_
*1173 _140_
*1174 _141_
*1175 _142_
*1176 _143_
*1177 _144_
*1178 _145_
*1179 _146_
*1180 _147_
*1181 _148_
*1182 _149_
*1183 _150_
*1184 _151_
*1185 _152_
*1186 _153_
*1187 _154_
*1188 _155_
*1189 _156_
*1190 _157_
*1191 _158_
*1192 _159_
*1193 _160_
*1194 _161_
*1195 _162_
*1196 _163_
*1197 _164_
*1198 _165_
*1199 _166_
*1200 _167_
*1201 _168_
*1202 _169_
*1203 _170_
*1204 _171_
*1205 _172_
*1206 _173_
*1207 _174_
*1208 _175_
*1209 _176_
*1210 _177_
*1211 _178_
*1212 _179_
*1213 _180_
*1214 _181_
*1215 _182_
*1216 _183_
*1217 _184_
*1218 _185_
*1219 _186_
*1220 _187_
*1221 _188_
*1222 _189_
*1223 _190_
*1224 _191_
*1225 _192_
*1226 _193_
*1227 fanout7
*1228 fanout8
*1229 input1
*1230 input10
*1231 input11
*1232 input12
*1233 input13
*1234 input14
*1235 input15
*1236 input16
*1237 input17
*1238 input18
*1239 input19
*1240 input2
*1241 input20
*1242 input21
*1243 input22
*1244 input23
*1245 input24
*1246 input25
*1247 input26
*1248 input27
*1249 input28
*1250 input29
*1251 input3
*1252 input30
*1253 input31
*1254 input32
*1255 input33
*1256 input34
*1257 input35
*1258 input36
*1259 input37
*1260 input38
*1261 input39
*1262 input4
*1263 input40
*1264 input41
*1265 input42
*1266 input43
*1267 input44
*1268 input45
*1269 input46
*1270 input47
*1271 input48
*1272 input49
*1273 input5
*1274 input50
*1275 input51
*1276 input52
*1277 input53
*1278 input6
*1279 input7
*1280 input8
*1281 input9
*1282 output100
*1283 output101
*1284 output102
*1285 output103
*1286 output104
*1287 output105
*1288 output106
*1289 output107
*1290 output108
*1291 output109
*1292 output110
*1293 output111
*1294 output112
*1295 output113
*1296 output114
*1297 output115
*1298 output116
*1299 output117
*1300 output118
*1301 output119
*1302 output120
*1303 output121
*1304 output122
*1305 output123
*1306 output124
*1307 output125
*1308 output126
*1309 output127
*1310 output128
*1311 output129
*1312 output130
*1313 output131
*1314 output132
*1315 output133
*1316 output134
*1317 output135
*1318 output136
*1319 output137
*1320 output138
*1321 output139
*1322 output140
*1323 output141
*1324 output142
*1325 output143
*1326 output144
*1327 output145
*1328 output146
*1329 output147
*1330 output148
*1331 output149
*1332 output150
*1333 output151
*1334 output152
*1335 output153
*1336 output154
*1337 output155
*1338 output156
*1339 output157
*1340 output158
*1341 output159
*1342 output160
*1343 output161
*1344 output162
*1345 output163
*1346 output54
*1347 output55
*1348 output56
*1349 output57
*1350 output58
*1351 output59
*1352 output60
*1353 output61
*1354 output62
*1355 output63
*1356 output64
*1357 output65
*1358 output66
*1359 output67
*1360 output68
*1361 output69
*1362 output70
*1363 output71
*1364 output72
*1365 output73
*1366 output74
*1367 output75
*1368 output76
*1369 output77
*1370 output78
*1371 output79
*1372 output80
*1373 output81
*1374 output82
*1375 output83
*1376 output84
*1377 output85
*1378 output86
*1379 output87
*1380 output88
*1381 output89
*1382 output90
*1383 output91
*1384 output92
*1385 output93
*1386 output94
*1387 output95
*1388 output96
*1389 output97
*1390 output98
*1391 output99

*PORTS
BOOT_top O
Co O
FrameData[0] I
FrameData[10] I
FrameData[11] I
FrameData[12] I
FrameData[13] I
FrameData[14] I
FrameData[15] I
FrameData[16] I
FrameData[17] I
FrameData[18] I
FrameData[19] I
FrameData[1] I
FrameData[20] I
FrameData[21] I
FrameData[22] I
FrameData[23] I
FrameData[24] I
FrameData[25] I
FrameData[26] I
FrameData[27] I
FrameData[28] I
FrameData[29] I
FrameData[2] I
FrameData[30] I
FrameData[31] I
FrameData[3] I
FrameData[4] I
FrameData[5] I
FrameData[6] I
FrameData[7] I
FrameData[8] I
FrameData[9] I
FrameData_O[0] O
FrameData_O[10] O
FrameData_O[11] O
FrameData_O[12] O
FrameData_O[13] O
FrameData_O[14] O
FrameData_O[15] O
FrameData_O[16] O
FrameData_O[17] O
FrameData_O[18] O
FrameData_O[19] O
FrameData_O[1] O
FrameData_O[20] O
FrameData_O[21] O
FrameData_O[22] O
FrameData_O[23] O
FrameData_O[24] O
FrameData_O[25] O
FrameData_O[26] O
FrameData_O[27] O
FrameData_O[28] O
FrameData_O[29] O
FrameData_O[2] O
FrameData_O[30] O
FrameData_O[31] O
FrameData_O[3] O
FrameData_O[4] O
FrameData_O[5] O
FrameData_O[6] O
FrameData_O[7] O
FrameData_O[8] O
FrameData_O[9] O
FrameStrobe[0] I
FrameStrobe[10] I
FrameStrobe[11] I
FrameStrobe[12] I
FrameStrobe[13] I
FrameStrobe[14] I
FrameStrobe[15] I
FrameStrobe[16] I
FrameStrobe[17] I
FrameStrobe[18] I
FrameStrobe[19] I
FrameStrobe[1] I
FrameStrobe[2] I
FrameStrobe[3] I
FrameStrobe[4] I
FrameStrobe[5] I
FrameStrobe[6] I
FrameStrobe[7] I
FrameStrobe[8] I
FrameStrobe[9] I
FrameStrobe_O[0] O
FrameStrobe_O[10] O
FrameStrobe_O[11] O
FrameStrobe_O[12] O
FrameStrobe_O[13] O
FrameStrobe_O[14] O
FrameStrobe_O[15] O
FrameStrobe_O[16] O
FrameStrobe_O[17] O
FrameStrobe_O[18] O
FrameStrobe_O[19] O
FrameStrobe_O[1] O
FrameStrobe_O[2] O
FrameStrobe_O[3] O
FrameStrobe_O[4] O
FrameStrobe_O[5] O
FrameStrobe_O[6] O
FrameStrobe_O[7] O
FrameStrobe_O[8] O
FrameStrobe_O[9] O
N1BEG[0] O
N1BEG[1] O
N1BEG[2] O
N1BEG[3] O
N2BEG[0] O
N2BEG[1] O
N2BEG[2] O
N2BEG[3] O
N2BEG[4] O
N2BEG[5] O
N2BEG[6] O
N2BEG[7] O
N2BEGb[0] O
N2BEGb[1] O
N2BEGb[2] O
N2BEGb[3] O
N2BEGb[4] O
N2BEGb[5] O
N2BEGb[6] O
N2BEGb[7] O
N4BEG[0] O
N4BEG[10] O
N4BEG[11] O
N4BEG[12] O
N4BEG[13] O
N4BEG[14] O
N4BEG[15] O
N4BEG[1] O
N4BEG[2] O
N4BEG[3] O
N4BEG[4] O
N4BEG[5] O
N4BEG[6] O
N4BEG[7] O
N4BEG[8] O
N4BEG[9] O
NN4BEG[0] O
NN4BEG[10] O
NN4BEG[11] O
NN4BEG[12] O
NN4BEG[13] O
NN4BEG[14] O
NN4BEG[15] O
NN4BEG[1] O
NN4BEG[2] O
NN4BEG[3] O
NN4BEG[4] O
NN4BEG[5] O
NN4BEG[6] O
NN4BEG[7] O
NN4BEG[8] O
NN4BEG[9] O
RESET_top I
S1END[0] I
S1END[1] I
S1END[2] I
S1END[3] I
S2END[0] I
S2END[1] I
S2END[2] I
S2END[3] I
S2END[4] I
S2END[5] I
S2END[6] I
S2END[7] I
S2MID[0] I
S2MID[1] I
S2MID[2] I
S2MID[3] I
S2MID[4] I
S2MID[5] I
S2MID[6] I
S2MID[7] I
S4END[0] I
S4END[10] I
S4END[11] I
S4END[12] I
S4END[13] I
S4END[14] I
S4END[15] I
S4END[1] I
S4END[2] I
S4END[3] I
S4END[4] I
S4END[5] I
S4END[6] I
S4END[7] I
S4END[8] I
S4END[9] I
SLOT_top0 O
SLOT_top1 O
SLOT_top2 O
SLOT_top3 O
SS4END[0] I
SS4END[10] I
SS4END[11] I
SS4END[12] I
SS4END[13] I
SS4END[14] I
SS4END[15] I
SS4END[1] I
SS4END[2] I
SS4END[3] I
SS4END[4] I
SS4END[5] I
SS4END[6] I
SS4END[7] I
SS4END[8] I
SS4END[9] I
UserCLK I
UserCLKo O

*D_NET *1 0.00130116
*CONN
*P BOOT_top O
*I *1346:X O *D sky130_fd_sc_hd__buf_2
*CAP
1 BOOT_top 0.000650578
2 *1346:X 0.000650578
*RES
1 *1346:X BOOT_top 24.8536 
*END

*D_NET *2 0.00241796
*CONN
*P Co O
*I *965:LO O *D sky130_fd_sc_hd__conb_1
*CAP
1 Co 0.000504756
2 *965:LO 0.000504756
3 Co NN4BEG[14] 0.000318349
4 Co NN4BEG[15] 0.000184195
5 Co *1243:A 0.000259363
6 Co *178:15 0.000604189
7 Co *308:38 1.34436e-05
8 Co *348:22 2.89114e-05
*RES
1 *965:LO Co 28.5143 
*END

*D_NET *3 0.00445506
*CONN
*P FrameData[0] I
*I *1122:A I *D sky130_fd_sc_hd__clkbuf_2
*CAP
1 FrameData[0] 0.00136786
2 *1122:A 0.00136786
3 *1122:A *1242:A 0.000355193
4 *1122:A *4:21 0.00022616
5 *1122:A *14:7 0.000358631
6 *1122:A *25:15 0.00077936
*RES
1 FrameData[0] *1122:A 41.3826 
*END

*D_NET *4 0.0117282
*CONN
*P FrameData[10] I
*I *1132:A I *D sky130_fd_sc_hd__clkbuf_2
*I *438:DIODE I *D sky130_fd_sc_hd__diode_2
*CAP
1 FrameData[10] 0.00331178
2 *1132:A 4.41332e-05
3 *438:DIODE 4.41332e-05
4 *4:21 0.00331178
5 *1132:A *290:24 5.62995e-05
6 *4:21 N4BEG[2] 5.71472e-05
7 *4:21 N4BEG[4] 0.00010096
8 *4:21 *1097:A1 0
9 *4:21 *1097:A2 0
10 *4:21 *1097:B2 0
11 *4:21 *1097:C1 0
12 *4:21 *1127:A 0
13 *4:21 *1128:A 0
14 *4:21 *1141:A 0.000212729
15 *4:21 *1299:A 0.000182681
16 *4:21 *1304:A 0.00128362
17 *4:21 *1305:A 0
18 *4:21 *1373:A 0
19 *4:21 *5:17 0.000362167
20 *4:21 *32:19 0
21 *4:21 *33:11 2.33863e-05
22 *4:21 *34:15 8.24859e-05
23 *4:21 *226:8 0
24 *4:21 *284:38 0.000764056
25 *4:21 *290:24 0.000579857
26 *4:21 *307:18 2.16689e-05
27 *4:21 *310:20 0
28 *4:21 *321:22 9.60337e-06
29 *4:21 *340:36 0.000723375
30 *4:21 *400:18 0.000179329
31 *4:21 *402:12 0.000150851
32 *1122:A *4:21 0.00022616
*RES
1 FrameData[10] *4:21 44.7902 
2 *4:21 *438:DIODE 9.3 
3 *438:DIODE *1132:A 19.5464 
*END

*D_NET *5 0.0457683
*CONN
*P FrameData[11] I
*I *1133:A I *D sky130_fd_sc_hd__clkbuf_1
*I *443:DIODE I *D sky130_fd_sc_hd__diode_2
*CAP
1 FrameData[11] 0.00500616
2 *1133:A 2.35059e-05
3 *443:DIODE 0.00224865
4 *5:31 0.00377297
5 *5:17 0.00655399
6 *443:DIODE FrameStrobe_O[19] 1.20741e-05
7 *443:DIODE *1123:A 5.71472e-05
8 *443:DIODE *1125:A 0.000143375
9 *443:DIODE *1198:A 0.000528215
10 *443:DIODE *1200:A 0.000396175
11 *443:DIODE *1276:A 0.000144773
12 *443:DIODE *1286:A 9.71197e-05
13 *443:DIODE *1381:A 0.000822889
14 *443:DIODE *206:21 0.000183422
15 *443:DIODE *403:8 0.000106797
16 *443:DIODE *419:12 5.48508e-05
17 *443:DIODE *424:16 0.00057215
18 *1133:A FrameStrobe_O[19] 2.07878e-05
19 *5:17 *447:DIODE 0.00226522
20 *5:17 *1181:A 0.00557471
21 *5:17 *1229:A 2.72155e-05
22 *5:17 *1233:A 6.91067e-05
23 *5:17 *1234:A 1.90936e-05
24 *5:17 *1235:A 0
25 *5:17 *1236:A 0.000108656
26 *5:17 *1240:A 0
27 *5:17 *1281:A 0