*SPEF "ieee 1481-1999"
*DESIGN "S_term_single2"
*DATE "18:25:54 Thursday April 03, 2025"
*VENDOR "The OpenROAD Project"
*PROGRAM "OpenROAD"
*VERSION "87af90f72f3f9be1fdfa1d886f0dd8d8b8f34694"
*DESIGN_FLOW "NAME_SCOPE LOCAL" "PIN_CAP NONE"
*DIVIDER /
*DELIMITER :
*BUS_DELIMITER []
*T_UNIT 1 NS
*C_UNIT 1 PF
*R_UNIT 1 OHM
*L_UNIT 1 HENRY

*NAME_MAP
*1 FrameData[0]
*2 FrameData[10]
*3 FrameData[11]
*4 FrameData[12]
*5 FrameData[13]
*6 FrameData[14]
*7 FrameData[15]
*8 FrameData[16]
*9 FrameData[17]
*10 FrameData[18]
*11 FrameData[19]
*12 FrameData[1]
*13 FrameData[20]
*14 FrameData[21]
*15 FrameData[22]
*16 FrameData[23]
*17 FrameData[24]
*18 FrameData[25]
*19 FrameData[26]
*20 FrameData[27]
*21 FrameData[28]
*22 FrameData[29]
*23 FrameData[2]
*24 FrameData[30]
*25 FrameData[31]
*26 FrameData[3]
*27 FrameData[4]
*28 FrameData[5]
*29 FrameData[6]
*30 FrameData[7]
*31 FrameData[8]
*32 FrameData[9]
*33 FrameData_O[0]
*34 FrameData_O[10]
*35 FrameData_O[11]
*36 FrameData_O[12]
*37 FrameData_O[13]
*38 FrameData_O[14]
*39 FrameData_O[15]
*40 FrameData_O[16]
*41 FrameData_O[17]
*42 FrameData_O[18]
*43 FrameData_O[19]
*44 FrameData_O[1]
*45 FrameData_O[20]
*46 FrameData_O[21]
*47 FrameData_O[22]
*48 FrameData_O[23]
*49 FrameData_O[24]
*50 FrameData_O[25]
*51 FrameData_O[26]
*52 FrameData_O[27]
*53 FrameData_O[28]
*54 FrameData_O[29]
*55 FrameData_O[2]
*56 FrameData_O[30]
*57 FrameData_O[31]
*58 FrameData_O[3]
*59 FrameData_O[4]
*60 FrameData_O[5]
*61 FrameData_O[6]
*62 FrameData_O[7]
*63 FrameData_O[8]
*64 FrameData_O[9]
*65 FrameStrobe[0]
*66 FrameStrobe[10]
*67 FrameStrobe[11]
*68 FrameStrobe[12]
*69 FrameStrobe[13]
*70 FrameStrobe[14]
*71 FrameStrobe[15]
*72 FrameStrobe[16]
*73 FrameStrobe[17]
*74 FrameStrobe[18]
*75 FrameStrobe[19]
*76 FrameStrobe[1]
*77 FrameStrobe[2]
*78 FrameStrobe[3]
*79 FrameStrobe[4]
*80 FrameStrobe[5]
*81 FrameStrobe[6]
*82 FrameStrobe[7]
*83 FrameStrobe[8]
*84 FrameStrobe[9]
*85 FrameStrobe_O[0]
*86 FrameStrobe_O[10]
*87 FrameStrobe_O[11]
*88 FrameStrobe_O[12]
*89 FrameStrobe_O[13]
*90 FrameStrobe_O[14]
*91 FrameStrobe_O[15]
*92 FrameStrobe_O[16]
*93 FrameStrobe_O[17]
*94 FrameStrobe_O[18]
*95 FrameStrobe_O[19]
*96 FrameStrobe_O[1]
*97 FrameStrobe_O[2]
*98 FrameStrobe_O[3]
*99 FrameStrobe_O[4]
*100 FrameStrobe_O[5]
*101 FrameStrobe_O[6]
*102 FrameStrobe_O[7]
*103 FrameStrobe_O[8]
*104 FrameStrobe_O[9]
*105 N1BEG[0]
*106 N1BEG[1]
*107 N1BEG[2]
*108 N1BEG[3]
*109 N2BEG[0]
*110 N2BEG[1]
*111 N2BEG[2]
*112 N2BEG[3]
*113 N2BEG[4]
*114 N2BEG[5]
*115 N2BEG[6]
*116 N2BEG[7]
*117 N2BEGb[0]
*118 N2BEGb[1]
*119 N2BEGb[2]
*120 N2BEGb[3]
*121 N2BEGb[4]
*122 N2BEGb[5]
*123 N2BEGb[6]
*124 N2BEGb[7]
*125 N4BEG[0]
*126 N4BEG[10]
*127 N4BEG[11]
*128 N4BEG[12]
*129 N4BEG[13]
*130 N4BEG[14]
*131 N4BEG[15]
*132 N4BEG[1]
*133 N4BEG[2]
*134 N4BEG[3]
*135 N4BEG[4]
*136 N4BEG[5]
*137 N4BEG[6]
*138 N4BEG[7]
*139 N4BEG[8]
*140 N4BEG[9]
*141 NN4BEG[0]
*142 NN4BEG[10]
*143 NN4BEG[11]
*144 NN4BEG[12]
*145 NN4BEG[13]
*146 NN4BEG[14]
*147 NN4BEG[15]
*148 NN4BEG[1]
*149 NN4BEG[2]
*150 NN4BEG[3]
*151 NN4BEG[4]
*152 NN4BEG[5]
*153 NN4BEG[6]
*154 NN4BEG[7]
*155 NN4BEG[8]
*156 NN4BEG[9]
*157 S1END[0]
*158 S1END[1]
*159 S1END[2]
*160 S1END[3]
*161 S2END[0]
*162 S2END[1]
*163 S2END[2]
*164 S2END[3]
*165 S2END[4]
*166 S2END[5]
*167 S2END[6]
*168 S2END[7]
*169 S2MID[0]
*170 S2MID[1]
*171 S2MID[2]
*172 S2MID[3]
*173 S2MID[4]
*174 S2MID[5]
*175 S2MID[6]
*176 S2MID[7]
*177 S4END[0]
*178 S4END[10]
*179 S4END[11]
*180 S4END[12]
*181 S4END[13]
*182 S4END[14]
*183 S4END[15]
*184 S4END[1]
*185 S4END[2]
*186 S4END[3]
*187 S4END[4]
*188 S4END[5]
*189 S4END[6]
*190 S4END[7]
*191 S4END[8]
*192 S4END[9]
*193 SS4END[0]
*194 SS4END[10]
*195 SS4END[11]
*196 SS4END[12]
*197 SS4END[13]
*198 SS4END[14]
*199 SS4END[15]
*200 SS4END[1]
*201 SS4END[2]
*202 SS4END[3]
*203 SS4END[4]
*204 SS4END[5]
*205 SS4END[6]
*206 SS4END[7]
*207 SS4END[8]
*208 SS4END[9]
*209 UserCLK
*210 UserCLKo
*213 net1
*214 net10
*215 net100
*216 net101
*217 net102
*218 net103
*219 net104
*220 net105
*221 net11
*222 net12
*223 net13
*224 net14
*225 net15
*226 net16
*227 net17
*228 net18
*229 net19
*230 net2
*231 net20
*232 net21
*233 net22
*234 net23
*235 net24
*236 net25
*237 net26
*238 net27
*239 net28
*240 net29
*241 net3
*242 net30
*243 net31
*244 net32
*245 net33
*246 net34
*247 net35
*248 net36
*249 net37
*250 net38
*251 net39
*252 net4
*253 net40
*254 net41
*255 net42
*256 net43
*257 net44
*258 net45
*259 net46
*260 net47
*261 net48
*262 net49
*263 net5
*264 net50
*265 net51
*266 net52
*267 net53
*268 net54
*269 net55
*270 net56
*271 net57
*272 net58
*273 net59
*274 net6
*275 net60
*276 net61
*277 net62
*278 net63
*279 net64
*280 net65
*281 net66
*282 net67
*283 net68
*284 net69
*285 net7
*286 net70
*287 net71
*288 net72
*289 net73
*290 net74
*291 net75
*292 net76
*293 net77
*294 net78
*295 net79
*296 net8
*297 net80
*298 net81
*299 net82
*300 net83
*301 net84
*302 net85
*303 net86
*304 net87
*305 net88
*306 net89
*307 net9
*308 net90
*309 net91
*310 net92
*311 net93
*312 net94
*313 net95
*314 net96
*315 net97
*316 net98
*317 net99
*318 FILLER_0_0
*319 FILLER_0_105
*320 FILLER_0_112
*321 FILLER_0_119
*322 FILLER_0_126
*323 FILLER_0_133
*324 FILLER_0_14
*325 FILLER_0_140
*326 FILLER_0_147
*327 FILLER_0_154
*328 FILLER_0_161
*329 FILLER_0_168
*330 FILLER_0_175
*331 FILLER_0_182
*332 FILLER_0_189
*333 FILLER_0_196
*334 FILLER_0_203
*335 FILLER_0_21
*336 FILLER_0_210
*337 FILLER_0_217
*338 FILLER_0_224
*339 FILLER_0_231
*340 FILLER_0_238
*341 FILLER_0_245
*342 FILLER_0_252
*343 FILLER_0_259
*344 FILLER_0_266
*345 FILLER_0_273
*346 FILLER_0_28
*347 FILLER_0_280
*348 FILLER_0_287
*349 FILLER_0_294
*350 FILLER_0_301
*351 FILLER_0_308
*352 FILLER_0_315
*353 FILLER_0_322
*354 FILLER_0_329
*355 FILLER_0_336
*356 FILLER_0_343
*357 FILLER_0_35
*358 FILLER_0_350
*359 FILLER_0_357
*360 FILLER_0_364
*361 FILLER_0_371
*362 FILLER_0_378
*363 FILLER_0_385
*364 FILLER_0_392
*365 FILLER_0_399
*366 FILLER_0_406
*367 FILLER_0_413
*368 FILLER_0_42
*369 FILLER_0_420
*370 FILLER_0_427
*371 FILLER_0_434
*372 FILLER_0_441
*373 FILLER_0_448
*374 FILLER_0_455
*375 FILLER_0_462
*376 FILLER_0_469
*377 FILLER_0_476
*378 FILLER_0_483
*379 FILLER_0_49
*380 FILLER_0_490
*381 FILLER_0_497
*382 FILLER_0_504
*383 FILLER_0_56
*384 FILLER_0_63
*385 FILLER_0_7
*386 FILLER_0_70
*387 FILLER_0_77
*388 FILLER_0_84
*389 FILLER_0_91
*390 FILLER_0_98
*391 FILLER_10_0
*392 FILLER_10_14
*393 FILLER_10_16
*394 FILLER_10_225
*395 FILLER_10_232
*396 FILLER_10_239
*397 FILLER_10_246
*398 FILLER_10_253
*399 FILLER_10_260
*400 FILLER_10_267
*401 FILLER_10_274
*402 FILLER_10_281
*403 FILLER_10_288
*404 FILLER_10_295
*405 FILLER_10_302
*406 FILLER_10_309
*407 FILLER_10_316
*408 FILLER_10_323
*409 FILLER_10_330
*410 FILLER_10_337
*411 FILLER_10_344
*412 FILLER_10_351
*413 FILLER_10_358
*414 FILLER_10_365
*415 FILLER_10_372
*416 FILLER_10_379
*417 FILLER_10_386
*418 FILLER_10_393
*419 FILLER_10_400
*420 FILLER_10_407
*421 FILLER_10_414
*422 FILLER_10_421
*423 FILLER_10_428
*424 FILLER_10_432
*425 FILLER_10_517
*426 FILLER_10_7
*427 FILLER_1_0
*428 FILLER_1_105
*429 FILLER_1_112
*430 FILLER_1_119
*431 FILLER_1_126
*432 FILLER_1_133
*433 FILLER_1_14
*434 FILLER_1_140
*435 FILLER_1_147
*436 FILLER_1_154
*437 FILLER_1_161
*438 FILLER_1_168
*439 FILLER_1_175
*440 FILLER_1_182
*441 FILLER_1_189
*442 FILLER_1_196
*443 FILLER_1_203
*444 FILLER_1_21
*445 FILLER_1_210
*446 FILLER_1_217
*447 FILLER_1_224
*448 FILLER_1_231
*449 FILLER_1_238
*450 FILLER_1_245
*451 FILLER_1_249
*452 FILLER_1_254
*453 FILLER_1_261
*454 FILLER_1_268
*455 FILLER_1_275
*456 FILLER_1_28
*457 FILLER_1_282
*458 FILLER_1_289
*459 FILLER_1_296
*460 FILLER_1_303
*461 FILLER_1_310
*462 FILLER_1_317
*463 FILLER_1_324
*464 FILLER_1_331
*465 FILLER_1_338
*466 FILLER_1_345
*467 FILLER_1_35
*468 FILLER_1_352
*469 FILLER_1_359
*470 FILLER_1_366
*471 FILLER_1_373
*472 FILLER_1_380
*473 FILLER_1_387
*474 FILLER_1_394
*475 FILLER_1_401
*476 FILLER_1_408
*477 FILLER_1_415
*478 FILLER_1_42
*479 FILLER_1_422
*480 FILLER_1_429
*481 FILLER_1_436
*482 FILLER_1_443
*483 FILLER_1_450
*484 FILLER_1_457
*485 FILLER_1_464
*486 FILLER_1_471
*487 FILLER_1_478
*488 FILLER_1_485
*489 FILLER_1_49
*490 FILLER_1_492
*491 FILLER_1_499
*492 FILLER_1_506
*493 FILLER_1_513
*494 FILLER_1_517
*495 FILLER_1_56
*496 FILLER_1_63
*497 FILLER_1_7
*498 FILLER_1_70
*499 FILLER_1_77
*500 FILLER_1_84
*501 FILLER_1_91
*502 FILLER_1_98
*503 FILLER_2_0
*504 FILLER_2_105
*505 FILLER_2_112
*506 FILLER_2_119
*507 FILLER_2_126
*508 FILLER_2_133
*509 FILLER_2_14
*510 FILLER_2_140
*511 FILLER_2_147
*512 FILLER_2_154
*513 FILLER_2_161
*514 FILLER_2_168
*515 FILLER_2_175
*516 FILLER_2_182
*517 FILLER_2_189
*518 FILLER_2_196
*519 FILLER_2_203
*520 FILLER_2_21
*521 FILLER_2_210
*522 FILLER_2_218
*523 FILLER_2_225
*524 FILLER_2_227
*525 FILLER_2_232
*526 FILLER_2_239
*527 FILLER_2_244
*528 FILLER_2_254
*529 FILLER_2_261
*530 FILLER_2_268
*531 FILLER_2_275
*532 FILLER_2_28
*533 FILLER_2_286
*534 FILLER_2_293
*535 FILLER_2_300
*536 FILLER_2_307
*537 FILLER_2_314
*538 FILLER_2_321
*539 FILLER_2_328
*540 FILLER_2_335
*541 FILLER_2_342
*542 FILLER_2_349
*543 FILLER_2_35
*544 FILLER_2_356
*545 FILLER_2_363
*546 FILLER_2_370
*547 FILLER_2_377
*548 FILLER_2_384
*549 FILLER_2_391
*550 FILLER_2_398
*551 FILLER_2_405
*552 FILLER_2_412
*553 FILLER_2_419
*554 FILLER_2_42
*555 FILLER_2_426
*556 FILLER_2_433
*557 FILLER_2_440
*558 FILLER_2_447
*559 FILLER_2_454
*560 FILLER_2_461
*561 FILLER_2_468
*562 FILLER_2_475
*563 FILLER_2_482
*564 FILLER_2_489
*565 FILLER_2_49
*566 FILLER_2_496
*567 FILLER_2_503
*568 FILLER_2_510
*569 FILLER_2_517
*570 FILLER_2_521
*571 FILLER_2_56
*572 FILLER_2_63
*573 FILLER_2_7
*574 FILLER_2_70
*575 FILLER_2_77
*576 FILLER_2_84
*577 FILLER_2_91
*578 FILLER_2_98
*579 FILLER_3_0
*580 FILLER_3_105
*581 FILLER_3_112
*582 FILLER_3_119
*583 FILLER_3_126
*584 FILLER_3_133
*585 FILLER_3_14
*586 FILLER_3_140
*587 FILLER_3_147
*588 FILLER_3_154
*589 FILLER_3_161
*590 FILLER_3_168
*591 FILLER_3_175
*592 FILLER_3_182
*593 FILLER_3_189
*594 FILLER_3_196
*595 FILLER_3_200
*596 FILLER_3_206
*597 FILLER_3_21
*598 FILLER_3_221
*599 FILLER_3_234
*600 FILLER_3_262
*601 FILLER_3_269
*602 FILLER_3_276
*603 FILLER_3_28
*604 FILLER_3_283
*605 FILLER_3_290
*606 FILLER_3_297
*607 FILLER_3_304
*608 FILLER_3_311
*609 FILLER_3_318
*610 FILLER_3_325
*611 FILLER_3_332
*612 FILLER_3_339
*613 FILLER_3_346
*614 FILLER_3_35
*615 FILLER_3_353
*616 FILLER_3_360
*617 FILLER_3_367
*618 FILLER_3_374
*619 FILLER_3_381
*620 FILLER_3_388
*621 FILLER_3_395
*622 FILLER_3_402
*623 FILLER_3_409
*624 FILLER_3_416
*625 FILLER_3_42
*626 FILLER_3_423
*627 FILLER_3_430
*628 FILLER_3_437
*629 FILLER_3_444
*630 FILLER_3_451
*631 FILLER_3_458
*632 FILLER_3_465
*633 FILLER_3_472
*634 FILLER_3_479
*635 FILLER_3_486
*636 FILLER_3_49
*637 FILLER_3_493
*638 FILLER_3_500
*639 FILLER_3_507
*640 FILLER_3_514
*641 FILLER_3_521
*642 FILLER_3_56
*643 FILLER_3_63
*644 FILLER_3_7
*645 FILLER_3_70
*646 FILLER_3_77
*647 FILLER_3_84
*648 FILLER_3_91
*649 FILLER_3_98
*650 FILLER_4_0
*651 FILLER_4_105
*652 FILLER_4_112
*653 FILLER_4_119
*654 FILLER_4_126
*655 FILLER_4_133
*656 FILLER_4_14
*657 FILLER_4_140
*658 FILLER_4_147
*659 FILLER_4_154
*660 FILLER_4_161
*661 FILLER_4_168
*662 FILLER_4_175
*663 FILLER_4_182
*664 FILLER_4_189
*665 FILLER_4_196
*666 FILLER_4_203
*667 FILLER_4_21
*668 FILLER_4_210
*669 FILLER_4_217
*670 FILLER_4_224
*671 FILLER_4_231
*672 FILLER_4_238
*673 FILLER_4_245
*674 FILLER_4_252
*675 FILLER_4_259
*676 FILLER_4_266
*677 FILLER_4_273
*678 FILLER_4_28
*679 FILLER_4_280
*680 FILLER_4_287
*681 FILLER_4_294
*682 FILLER_4_301
*683 FILLER_4_308
*684 FILLER_4_315
*685 FILLER_4_317
*686 FILLER_4_322
*687 FILLER_4_324
*688 FILLER_4_329
*689 FILLER_4_336
*690 FILLER_4_343
*691 FILLER_4_35
*692 FILLER_4_350
*693 FILLER_4_357
*694 FILLER_4_364
*695 FILLER_4_371
*696 FILLER_4_378
*697 FILLER_4_385
*698 FILLER_4_392
*699 FILLER_4_399
*700 FILLER_4_406
*701 FILLER_4_413
*702 FILLER_4_42
*703 FILLER_4_420
*704 FILLER_4_427
*705 FILLER_4_434
*706 FILLER_4_441
*707 FILLER_4_448
*708 FILLER_4_455
*709 FILLER_4_462
*710 FILLER_4_469
*711 FILLER_4_476
*712 FILLER_4_483
*713 FILLER_4_49
*714 FILLER_4_490
*715 FILLER_4_497
*716 FILLER_4_504
*717 FILLER_4_511
*718 FILLER_4_518
*719 FILLER_4_522
*720 FILLER_4_56
*721 FILLER_4_63
*722 FILLER_4_7
*723 FILLER_4_70
*724 FILLER_4_77
*725 FILLER_4_84
*726 FILLER_4_91
*727 FILLER_4_98
*728 FILLER_5_0
*729 FILLER_5_105
*730 FILLER_5_112
*731 FILLER_5_119
*732 FILLER_5_126
*733 FILLER_5_133
*734 FILLER_5_14
*735 FILLER_5_140
*736 FILLER_5_147
*737 FILLER_5_154
*738 FILLER_5_161
*739 FILLER_5_168
*740 FILLER_5_175
*741 FILLER_5_182
*742 FILLER_5_189
*743 FILLER_5_196
*744 FILLER_5_203
*745 FILLER_5_21
*746 FILLER_5_210
*747 FILLER_5_217
*748 FILLER_5_224
*749 FILLER_5_231
*750 FILLER_5_238
*751 FILLER_5_245
*752 FILLER_5_252
*753 FILLER_5_259
*754 FILLER_5_270
*755 FILLER_5_274
*756 FILLER_5_279
*757 FILLER_5_28
*758 FILLER_5_286
*759 FILLER_5_293
*760 FILLER_5_297
*761 FILLER_5_302
*762 FILLER_5_309
*763 FILLER_5_316
*764 FILLER_5_321
*765 FILLER_5_328
*766 FILLER_5_336
*767 FILLER_5_343
*768 FILLER_5_35
*769 FILLER_5_350
*770 FILLER_5_357
*771 FILLER_5_364
*772 FILLER_5_371
*773 FILLER_5_378
*774 FILLER_5_385
*775 FILLER_5_392
*776 FILLER_5_399
*777 FILLER_5_406
*778 FILLER_5_413
*779 FILLER_5_42
*780 FILLER_5_420
*781 FILLER_5_427
*782 FILLER_5_434
*783 FILLER_5_441
*784 FILLER_5_448
*785 FILLER_5_455
*786 FILLER_5_462
*787 FILLER_5_469
*788 FILLER_5_475
*789 FILLER_5_482
*790 FILLER_5_489
*791 FILLER_5_49
*792 FILLER_5_496
*793 FILLER_5_504
*794 FILLER_5_511
*795 FILLER_5_518
*796 FILLER_5_522
*797 FILLER_5_56
*798 FILLER_5_63
*799 FILLER_5_7
*800 FILLER_5_70
*801 FILLER_5_77
*802 FILLER_5_84
*803 FILLER_5_91
*804 FILLER_5_98
*805 FILLER_6_0
*806 FILLER_6_105
*807 FILLER_6_112
*808 FILLER_6_119
*809 FILLER_6_126
*810 FILLER_6_133
*811 FILLER_6_14
*812 FILLER_6_140
*813 FILLER_6_147
*814 FILLER_6_154
*815 FILLER_6_161
*816 FILLER_6_168
*817 FILLER_6_175
*818 FILLER_6_182
*819 FILLER_6_189
*820 FILLER_6_196
*821 FILLER_6_203
*822 FILLER_6_21
*823 FILLER_6_210
*824 FILLER_6_217
*825 FILLER_6_224
*826 FILLER_6_228
*827 FILLER_6_237
*828 FILLER_6_244
*829 FILLER_6_252
*830 FILLER_6_258
*831 FILLER_6_265
*832 FILLER_6_272
*833 FILLER_6_279
*834 FILLER_6_28
*835 FILLER_6_286
*836 FILLER_6_293
*837 FILLER_6_300
*838 FILLER_6_307
*839 FILLER_6_314
*840 FILLER_6_321
*841 FILLER_6_328
*842 FILLER_6_335
*843 FILLER_6_342
*844 FILLER_6_349
*845 FILLER_6_35
*846 FILLER_6_354
*847 FILLER_6_361
*848 FILLER_6_368
*849 FILLER_6_375
*850 FILLER_6_382
*851 FILLER_6_389
*852 FILLER_6_396
*853 FILLER_6_404
*854 FILLER_6_411
*855 FILLER_6_418
*856 FILLER_6_42
*857 FILLER_6_425
*858 FILLER_6_427
*859 FILLER_6_432
*860 FILLER_6_439
*861 FILLER_6_446
*862 FILLER_6_453
*863 FILLER_6_460
*864 FILLER_6_467
*865 FILLER_6_474
*866 FILLER_6_481
*867 FILLER_6_488
*868 FILLER_6_49
*869 FILLER_6_495
*870 FILLER_6_499
*871 FILLER_6_505
*872 FILLER_6_512
*873 FILLER_6_519
*874 FILLER_6_56
*875 FILLER_6_63
*876 FILLER_6_7
*877 FILLER_6_70
*878 FILLER_6_77
*879 FILLER_6_84
*880 FILLER_6_91
*881 FILLER_6_98
*882 FILLER_7_0
*883 FILLER_7_100
*884 FILLER_7_109
*885 FILLER_7_114
*886 FILLER_7_116
*887 FILLER_7_121
*888 FILLER_7_125
*889 FILLER_7_135
*890 FILLER_7_139
*891 FILLER_7_14
*892 FILLER_7_148
*893 FILLER_7_155
*894 FILLER_7_162
*895 FILLER_7_168
*896 FILLER_7_175
*897 FILLER_7_182
*898 FILLER_7_189
*899 FILLER_7_196
*900 FILLER_7_203
*901 FILLER_7_21
*902 FILLER_7_210
*903 FILLER_7_217
*904 FILLER_7_224
*905 FILLER_7_231
*906 FILLER_7_238
*907 FILLER_7_245
*908 FILLER_7_252
*909 FILLER_7_259
*910 FILLER_7_266
*911 FILLER_7_268
*912 FILLER_7_277
*913 FILLER_7_28
*914 FILLER_7_284
*915 FILLER_7_286
*916 FILLER_7_291
*917 FILLER_7_298
*918 FILLER_7_305
*919 FILLER_7_312
*920 FILLER_7_319
*921 FILLER_7_326
*922 FILLER_7_333
*923 FILLER_7_340
*924 FILLER_7_347
*925 FILLER_7_35
*926 FILLER_7_354
*927 FILLER_7_361
*928 FILLER_7_368
*929 FILLER_7_375
*930 FILLER_7_381
*931 FILLER_7_383
*932 FILLER_7_388
*933 FILLER_7_392
*934 FILLER_7_397
*935 FILLER_7_404
*936 FILLER_7_411
*937 FILLER_7_418
*938 FILLER_7_42
*939 FILLER_7_425
*940 FILLER_7_432
*941 FILLER_7_439
*942 FILLER_7_446
*943 FILLER_7_453
*944 FILLER_7_460
*945 FILLER_7_467
*946 FILLER_7_474
*947 FILLER_7_481
*948 FILLER_7_488
*949 FILLER_7_49
*950 FILLER_7_495
*951 FILLER_7_502
*952 FILLER_7_509
*953 FILLER_7_516
*954 FILLER_7_56
*955 FILLER_7_63
*956 FILLER_7_7
*957 FILLER_7_70
*958 FILLER_7_77
*959 FILLER_7_84
*960 FILLER_7_91
*961 FILLER_7_98
*962 FILLER_8_0
*963 FILLER_8_102
*964 FILLER_8_109
*965 FILLER_8_111
*966 FILLER_8_116
*967 FILLER_8_123
*968 FILLER_8_130
*969 FILLER_8_137
*970 FILLER_8_14
*971 FILLER_8_144
*972 FILLER_8_146
*973 FILLER_8_183
*974 FILLER_8_185
*975 FILLER_8_194
*976 FILLER_8_198
*977 FILLER_8_203
*978 FILLER_8_208
*979 FILLER_8_215
*980 FILLER_8_222
*981 FILLER_8_229
*982 FILLER_8_236
*983 FILLER_8_243
*984 FILLER_8_25
*985 FILLER_8_250
*986 FILLER_8_257
*987 FILLER_8_264
*988 FILLER_8_271
*989 FILLER_8_278
*990 FILLER_8_282
*991 FILLER_8_287
*992 FILLER_8_294
*993 FILLER_8_301
*994 FILLER_8_308
*995 FILLER_8_315
*996 FILLER_8_32
*997 FILLER_8_322
*998 FILLER_8_341
*999 FILLER_8_348
*1000 FILLER_8_365
*1001 FILLER_8_37
*1002 FILLER_8_406
*1003 FILLER_8_41
*1004 FILLER_8_413
*1005 FILLER_8_420
*1006 FILLER_8_427
*1007 FILLER_8_434
*1008 FILLER_8_441
*1009 FILLER_8_448
*1010 FILLER_8_455
*1011 FILLER_8_46
*1012 FILLER_8_462
*1013 FILLER_8_469
*1014 FILLER_8_476
*1015 FILLER_8_483
*1016 FILLER_8_490
*1017 FILLER_8_497
*1018 FILLER_8_50
*1019 FILLER_8_504
*1020 FILLER_8_511
*1021 FILLER_8_518
*1022 FILLER_8_55
*1023 FILLER_8_62
*1024 FILLER_8_7
*1025 FILLER_8_77
*1026 FILLER_8_84
*1027 FILLER_8_91
*1028 FILLER_8_93
*1029 FILLER_9_0
*1030 FILLER_9_105
*1031 FILLER_9_112
*1032 FILLER_9_119
*1033 FILLER_9_126
*1034 FILLER_9_133
*1035 FILLER_9_14
*1036 FILLER_9_140
*1037 FILLER_9_147
*1038 FILLER_9_154
*1039 FILLER_9_161
*1040 FILLER_9_168
*1041 FILLER_9_175
*1042 FILLER_9_182
*1043 FILLER_9_189
*1044 FILLER_9_196
*1045 FILLER_9_203
*1046 FILLER_9_21
*1047 FILLER_9_210
*1048 FILLER_9_212
*1049 FILLER_9_217
*1050 FILLER_9_226
*1051 FILLER_9_232
*1052 FILLER_9_238
*1053 FILLER_9_245
*1054 FILLER_9_252
*1055 FILLER_9_259
*1056 FILLER_9_28
*1057 FILLER_9_298
*1058 FILLER_9_305
*1059 FILLER_9_312
*1060 FILLER_9_317
*1061 FILLER_9_324
*1062 FILLER_9_331
*1063 FILLER_9_338
*1064 FILLER_9_345
*1065 FILLER_9_35
*1066 FILLER_9_352
*1067 FILLER_9_359
*1068 FILLER_9_366
*1069 FILLER_9_373
*1070 FILLER_9_380
*1071 FILLER_9_387
*1072 FILLER_9_394
*1073 FILLER_9_401
*1074 FILLER_9_408
*1075 FILLER_9_415
*1076 FILLER_9_42
*1077 FILLER_9_422
*1078 FILLER_9_429
*1079 FILLER_9_436
*1080 FILLER_9_443
*1081 FILLER_9_450
*1082 FILLER_9_457
*1083 FILLER_9_464
*1084 FILLER_9_471
*1085 FILLER_9_478
*1086 FILLER_9_485
*1087 FILLER_9_49
*1088 FILLER_9_492
*1089 FILLER_9_499
*1090 FILLER_9_506
*1091 FILLER_9_56
*1092 FILLER_9_63
*1093 FILLER_9_7
*1094 FILLER_9_70
*1095 FILLER_9_77
*1096 FILLER_9_84
*1097 FILLER_9_91
*1098 FILLER_9_98
*1099 _000_
*1100 _001_
*1101 _002_
*1102 _003_
*1103 _004_
*1104 _005_
*1105 _006_
*1106 _007_
*1107 _008_
*1108 _009_
*1109 _010_
*1110 _011_
*1111 _012_
*1112 _013_
*1113 _014_
*1114 _015_
*1115 _016_
*1116 _017_
*1117 _018_
*1118 _019_
*1119 _020_
*1120 _021_
*1121 _022_
*1122 _023_
*1123 _024_
*1124 _025_
*1125 _026_
*1126 _027_
*1127 _028_
*1128 _029_
*1129 _030_
*1130 _031_
*1131 _032_
*1132 _033_
*1133 _034_
*1134 _035_
*1135 _036_
*1136 _037_
*1137 _038_
*1138 _039_
*1139 _040_
*1140 _041_
*1141 _042_
*1142 _043_
*1143 _044_
*1144 _045_
*1145 _046_
*1146 _047_
*1147 _048_
*1148 _049_
*1149 _050_
*1150 _051_
*1151 _052_
*1152 _053_
*1153 _054_
*1154 _055_
*1155 _056_
*1156 _057_
*1157 _058_
*1158 _059_
*1159 _060_
*1160 _061_
*1161 _062_
*1162 _063_
*1163 _064_
*1164 _065_
*1165 _066_
*1166 _067_
*1167 _068_
*1168 _069_
*1169 _070_
*1170 _071_
*1171 _072_
*1172 _073_
*1173 _074_
*1174 _075_
*1175 _076_
*1176 _077_
*1177 _078_
*1178 _079_
*1179 _080_
*1180 _081_
*1181 _082_
*1182 _083_
*1183 _084_
*1184 _085_
*1185 _086_
*1186 _087_
*1187 _088_
*1188 _089_
*1189 _090_
*1190 _091_
*1191 _092_
*1192 _093_
*1193 _094_
*1194 _095_
*1195 _096_
*1196 _097_
*1197 _098_
*1198 _099_
*1199 _100_
*1200 _101_
*1201 _102_
*1202 _103_
*1203 _104_
*1204 output1
*1205 output10
*1206 output100
*1207 output101
*1208 output102
*1209 output103
*1210 output104
*1211 output105
*1212 output11
*1213 output12
*1214 output13
*1215 output14
*1216 output15
*1217 output16
*1218 output17
*1219 output18
*1220 output19
*1221 output2
*1222 output20
*1223 output21
*1224 output22
*1225 output23
*1226 output24
*1227 output25
*1228 output26
*1229 output27
*1230 output28
*1231 output29
*1232 output3
*1233 output30
*1234 output31
*1235 output32
*1236 output33
*1237 output34
*1238 output35
*1239 output36
*1240 output37
*1241 output38
*1242 output39
*1243 output4
*1244 output40
*1245 output41
*1246 output42
*1247 output43
*1248 output44
*1249 output45
*1250 output46
*1251 output47
*1252 output48
*1253 output49
*1254 output5
*1255 output50
*1256 output51
*1257 output52
*1258 output53
*1259 output54
*1260 output55
*1261 output56
*1262 output57
*1263 output58
*1264 output59
*1265 output6
*1266 output60
*1267 output61
*1268 output62
*1269 output63
*1270 output64
*1271 output65
*1272 output66
*1273 output67
*1274 output68
*1275 output69
*1276 output7
*1277 output70
*1278 output71
*1279 output72
*1280 output73
*1281 output74
*1282 output75
*1283 output76
*1284 output77
*1285 output78
*1286 output79
*1287 output8
*1288 output80
*1289 output81
*1290 output82
*1291 output83
*1292 output84
*1293 output85
*1294 output86
*1295 output87
*1296 output88
*1297 output89
*1298 output9
*1299 output90
*1300 output91
*1301 output92
*1302 output93
*1303 output94
*1304 output95
*1305 output96
*1306 output97
*1307 output98
*1308 output99

*PORTS
FrameData[0] I
FrameData[10] I
FrameData[11] I
FrameData[12] I
FrameData[13] I
FrameData[14] I
FrameData[15] I
FrameData[16] I
FrameData[17] I
FrameData[18] I
FrameData[19] I
FrameData[1] I
FrameData[20] I
FrameData[21] I
FrameData[22] I
FrameData[23] I
FrameData[24] I
FrameData[25] I
FrameData[26] I
FrameData[27] I
FrameData[28] I
FrameData[29] I
FrameData[2] I
FrameData[30] I
FrameData[31] I
FrameData[3] I
FrameData[4] I
FrameData[5] I
FrameData[6] I
FrameData[7] I
FrameData[8] I
FrameData[9] I
FrameData_O[0] O
FrameData_O[10] O
FrameData_O[11] O
FrameData_O[12] O
FrameData_O[13] O
FrameData_O[14] O
FrameData_O[15] O
FrameData_O[16] O
FrameData_O[17] O
FrameData_O[18] O
FrameData_O[19] O
FrameData_O[1] O
FrameData_O[20] O
FrameData_O[21] O
FrameData_O[22] O
FrameData_O[23] O
FrameData_O[24] O
FrameData_O[25] O
FrameData_O[26] O
FrameData_O[27] O
FrameData_O[28] O
FrameData_O[29] O
FrameData_O[2] O
FrameData_O[30] O
FrameData_O[31] O
FrameData_O[3] O
FrameData_O[4] O
FrameData_O[5] O
FrameData_O[6] O
FrameData_O[7] O
FrameData_O[8] O
FrameData_O[9] O
FrameStrobe[0] I
FrameStrobe[10] I
FrameStrobe[11] I
FrameStrobe[12] I
FrameStrobe[13] I
FrameStrobe[14] I
FrameStrobe[15] I
FrameStrobe[16] I
FrameStrobe[17] I
FrameStrobe[18] I
FrameStrobe[19] I
FrameStrobe[1] I
FrameStrobe[2] I
FrameStrobe[3] I
FrameStrobe[4] I
FrameStrobe[5] I
FrameStrobe[6] I
FrameStrobe[7] I
FrameStrobe[8] I
FrameStrobe[9] I
FrameStrobe_O[0] O
FrameStrobe_O[10] O
FrameStrobe_O[11] O
FrameStrobe_O[12] O
FrameStrobe_O[13] O
FrameStrobe_O[14] O
FrameStrobe_O[15] O
FrameStrobe_O[16] O
FrameStrobe_O[17] O
FrameStrobe_O[18] O
FrameStrobe_O[19] O
FrameStrobe_O[1] O
FrameStrobe_O[2] O
FrameStrobe_O[3] O
FrameStrobe_O[4] O
FrameStrobe_O[5] O
FrameStrobe_O[6] O
FrameStrobe_O[7] O
FrameStrobe_O[8] O
FrameStrobe_O[9] O
N1BEG[0] O
N1BEG[1] O
N1BEG[2] O
N1BEG[3] O
N2BEG[0] O
N2BEG[1] O
N2BEG[2] O
N2BEG[3] O
N2BEG[4] O
N2BEG[5] O
N2BEG[6] O
N2BEG[7] O
N2BEGb[0] O
N2BEGb[1] O
N2BEGb[2] O
N2BEGb[3] O
N2BEGb[4] O
N2BEGb[5] O
N2BEGb[6] O
N2BEGb[7] O
N4BEG[0] O
N4BEG[10] O
N4BEG[11] O
N4BEG[12] O
N4BEG[13] O
N4BEG[14] O
N4BEG[15] O
N4BEG[1] O
N4BEG[2] O
N4BEG[3] O
N4BEG[4] O
N4BEG[5] O
N4BEG[6] O
N4BEG[7] O
N4BEG[8] O
N4BEG[9] O
NN4BEG[0] O
NN4BEG[10] O
NN4BEG[11] O
NN4BEG[12] O
NN4BEG[13] O
NN4BEG[14] O
NN4BEG[15] O
NN4BEG[1] O
NN4BEG[2] O
NN4BEG[3] O
NN4BEG[4] O
NN4BEG[5] O
NN4BEG[6] O
NN4BEG[7] O
NN4BEG[8] O
NN4BEG[9] O
S1END[0] I
S1END[1] I
S1END[2] I
S1END[3] I
S2END[0] I
S2END[1] I
S2END[2] I
S2END[3] I
S2END[4] I
S2END[5] I
S2END[6] I
S2END[7] I
S2MID[0] I
S2MID[1] I
S2MID[2] I
S2MID[3] I
S2MID[4] I
S2MID[5] I
S2MID[6] I
S2MID[7] I
S4END[0] I
S4END[10] I
S4END[11] I
S4END[12] I
S4END[13] I
S4END[14] I
S4END[15] I
S4END[1] I
S4END[2] I
S4END[3] I
S4END[4] I
S4END[5] I
S4END[6] I
S4END[7] I
S4END[8] I
S4END[9] I
SS4END[0] I
SS4END[10] I
SS4END[11] I
SS4END[12] I
SS4END[13] I
SS4END[14] I
SS4END[15] I
SS4END[1] I
SS4END[2] I
SS4END[3] I
SS4END[4] I
SS4END[5] I
SS4END[6] I
SS4END[7] I
SS4END[8] I
SS4END[9] I
UserCLK I
UserCLKo O

*D_NET *1 0.0122986
*CONN
*P FrameData[0] I
*I *1099:A I *D sg13g2_buf_1
*CAP
1 FrameData[0] 0.00400939
2 *1099:A 0.000640196
3 *1:11 0.00158896
4 *1:5 0.00495815
5 *1099:A *1102:A 0.000444706
6 *1099:A *1103:A 0.000657213
7 *1099:A *3:5 0
8 *1099:A *32:9 0
9 *1:5 *12:5 0
10 *1:11 *12:11 0
*RES
1 FrameData[0] *1:5 46.162 
2 *1:5 *1:11 49.1876 
3 *1:11 *1099:A 27.0246 
*END

*D_NET *2 0.0227098
*CONN
*P FrameData[10] I
*I *1109:A I *D sg13g2_buf_1
*CAP
1 FrameData[10] 0.00169559
2 *1109:A 0
3 *2:25 0.000287199
4 *2:17 0.0030485
5 *2:11 0.0027613
6 *2:9 0.00169559
7 *2:9 *3:5 0
8 *2:9 *32:7 0
9 *2:9 *32:9 0.00278367
10 *2:17 *1100:A 0
11 *2:17 *1111:A 0.00129699
12 *2:17 *7:17 0.00018176
13 *2:17 *29:13 0
14 *2:17 *30:5 0
15 *2:17 *31:5 0.00794207
16 *2:17 *31:17 0.000569236
17 *2:17 *32:9 0
18 *2:25 *28:21 0.000110604
19 *2:25 *28:27 0
20 *2:25 *29:19 0
21 *2:25 *30:11 0
22 *2:25 *242:10 0
23 *2:25 *244:10 0.000128201
24 *2:25 *263:10 0.00020905
25 *2:25 *263:14 0
*RES
1 FrameData[10] *2:9 41.8231 
2 *2:9 *2:11 20 
3 *2:11 *2:17 43.7853 
4 *2:17 *2:25 42.8634 
5 *2:25 *1109:A 20 
*END

*D_NET *3 0.0133017
*CONN
*P FrameData[11] I
*I *1110:A I *D sg13g2_buf_1
*CAP
1 FrameData[11] 0.00574583
2 *1110:A 4.48555e-05
3 *3:5 0.00579068
4 *1110:A *244:10 0
5 *3:5 *1102:A 0.00172031
6 *3:5 *4:5 0
7 *3:5 *32:9 0
8 *3:5 *82:17 0
9 *3:5 *244:10 0
10 *3:5 *285:16 0
11 *1099:A *3:5 0
12 *2:9 *3:5 0
*RES
1 FrameData[11] *3:5 62.9716 
2 *3:5 *1110:A 20.5356 
*END

*D_NET *4 0.0162303
*CONN
*P FrameData[12] I
*I *1111:A I *D sg13g2_buf_1
*CAP
1 FrameData[12] 0.00606709
2 *1111:A 0.000623886
3 *4:11 0.000982607
4 *4:5 0.00642582
5 *1111:A *1112:A 0
6 *1111:A *7:17 0.0004473
7 *1111:A *28:21 0
8 *1111:A *29:13 0
9 *1111:A *31:17 0
10 *1111:A *240:10 0
11 *1111:A *242:14 0
12 *4:5 *5:5 0
13 *4:5 *81:15 0
14 *4:5 *82:17 0.000386623
15 *4:11 *7:17 0
16 *4:11 *23:17 0
17 *4:11 *222:14 0
18 *4:11 *238:10 0
19 *4:11 *274:10 0
20 *2:17 *1111:A 0.00129699
21 *3:5 *4:5 0
*RES
1 FrameData[12] *4:5 57.5332 
2 *4:5 *4:11 42.9779 
3 *4:11 *1111:A 27.8383 
*END

*D_NET *5 0.0239787
*CONN
*P FrameData[13] I
*I *1112:A I *D sg13g2_buf_1
*CAP
1 FrameData[13] 0.00438969
2 *1112:A 0.000743559
3 *5:11 0.00110006
4 *5:5 0.00474619
5 *1112:A *1100:A 0
6 *1112:A *7:17 0.000659807
7 *1112:A *31:17 0
8 *1112:A *222:14 0
9 *1112:A *244:10 0
10 *1112:A *274:10 4.86527e-05
11 *1112:A *285:10 0.000101685
12 *5:5 *6:11 0
13 *5:5 *11:13 0.0116095
14 *5:5 *81:15 0
15 *5:11 *82:11 0.000402178
16 *5:11 *213:10 0.000177328
17 *1111:A *1112:A 0
18 *4:5 *5:5 0
*RES
1 FrameData[13] *5:5 55.5556 
2 *5:5 *5:11 43.7801 
3 *5:11 *1112:A 27.3439 
*END

*D_NET *6 0.0244082
*CONN
*P FrameData[14] I
*I *1113:A I *D sg13g2_buf_1
*CAP
1 FrameData[14] 0.000591953
2 *1113:A 0
3 *6:19 0.000459072
4 *6:13 0.00315295
5 *6:11 0.00328583
6 *6:11 *7:7 0
7 *6:11 *7:9 0.00151067
8 *6:11 *11:13 0
9 *6:13 *7:9 0
10 *6:13 *11:13 0.0104932
11 *6:13 *79:9 0.00427301
12 *6:19 *7:17 0
13 *6:19 *82:11 0.000433146
14 *6:19 *238:10 0.000208384
15 *5:5 *6:11 0
*RES
1 FrameData[14] *6:11 8.52582 
2 *6:11 *6:13 48.8014 
3 *6:13 *6:19 44.429 
4 *6:19 *1113:A 20 
*END

*D_NET *7 0.0193759
*CONN
*P FrameData[15] I
*I *1114:A I *D sg13g2_buf_1
*CAP
1 FrameData[15] 7.79734e-05
2 *1114:A 0
3 *7:17 0.000648664
4 *7:9 0.0063094
5 *7:7 0.0057387
6 *7:7 *8:9 0
7 *7:9 *8:9 0
8 *7:9 *13:19 0
9 *7:9 *15:15 0
10 *7:9 *79:9 0
11 *7:9 *80:9 0.00299608
12 *7:9 *209:9 0
13 *7:17 *238:10 0.000208323
14 *7:17 *274:10 0.000597178
15 *1111:A *7:17 0.0004473
16 *1112:A *7:17 0.000659807
17 *2:17 *7:17 0.00018176
18 *4:11 *7:17 0
19 *6:11 *7:7 0
20 *6:11 *7:9 0.00151067
21 *6:13 *7:9 0
22 *6:19 *7:17 0
*RES
1 FrameData[15] *7:7 0.965625 
2 *7:7 *7:9 56.2174 
3 *7:9 *7:17 48.3636 
4 *7:17 *1114:A 20 
*END

*D_NET *8 0.0189796
*CONN
*P FrameData[16] I
*I *1115:A I *D sg13g2_buf_1
*CAP
1 FrameData[16] 0.001073
2 *1115:A 0.00254469
3 *8:15 0.006313
4 *8:11 0.00376831
5 *8:9 0.001073
6 *1115:A *26:5 0
7 *1115:A *27:5 0
8 *1115:A *28:13 0
9 *1115:A *213:16 0
10 *1115:A *238:16 8.03692e-05
11 *1115:A *242:14 0
12 *8:9 *9:9 0
13 *8:9 *10:11 0.000729269
14 *8:9 *209:7 0
15 *8:15 *27:5 0
16 *8:15 *28:11 0.00339797
17 *8:15 *28:13 0
18 *7:7 *8:9 0
19 *7:9 *8:9 0
*RES
1 FrameData[16] *8:9 32.0587 
2 *8:9 *8:11 20 
3 *8:11 *8:15 42.1991 
4 *8:15 *1115:A 41.1562 
*END

*D_NET *9 0.013437
*CONN
*P FrameData[17] I
*I *1116:A I *D sg13g2_buf_1
*CAP
1 FrameData[17] 0.00116707
2 *1116:A 0
3 *9:17 0
4 *9:13 0.00555141
5 *9:11 0.00555141
6 *9:9 0.00116707
7 *9:9 *10:11 0
8 *9:9 *209:7 0
9 *9:13 *10:13 0
10 *8:9 *9:9 0
*RES
1 FrameData[17] *9:9 31.1008 
2 *9:9 *9:11 20 
3 *9:11 *9:13 69.319 
4 *9:13 *9:17 40 
5 *9:17 *1116:A 20 
*END

*D_NET *10 0.0127798
*CONN
*P FrameData[18] I
*I *1117:A I *D sg13g2_buf_1
*CAP
1 FrameData[18] 0.00083507
2 *1117:A 0
3 *10:17 0
4 *10:13 0.00519021
5 *10:11 0.00602528
6 *10:11 *11:11 0
7 *10:11 *13:11 0
8 *10:11 *15:11 0
9 *8:9 *10:11 0.000729269
10 *9:9 *10:11 0
11 *9:13 *10:13 0
*RES
1 FrameData[18] *10:11 48.9996 
2 *10:11 *10:13 64.6222 