*SPEF "ieee 1481-1999"
*DESIGN "S_CPU_IF"
*DATE "16:58:21 Thursday April 03, 2025"
*VENDOR "The OpenROAD Project"
*PROGRAM "OpenROAD"
*VERSION "87af90f72f3f9be1fdfa1d886f0dd8d8b8f34694"
*DESIGN_FLOW "NAME_SCOPE LOCAL" "PIN_CAP NONE"
*DIVIDER /
*DELIMITER :
*BUS_DELIMITER []
*T_UNIT 1 NS
*C_UNIT 1 PF
*R_UNIT 1 OHM
*L_UNIT 1 HENRY

*NAME_MAP
*1 net237
*2 FrameData[0]
*3 FrameData[10]
*4 FrameData[11]
*5 FrameData[12]
*6 FrameData[13]
*7 FrameData[14]
*8 FrameData[15]
*9 FrameData[16]
*10 FrameData[17]
*11 FrameData[18]
*12 FrameData[19]
*13 FrameData[1]
*14 FrameData[20]
*15 FrameData[21]
*16 FrameData[22]
*17 FrameData[23]
*18 FrameData[24]
*19 FrameData[25]
*20 FrameData[26]
*21 FrameData[27]
*22 FrameData[28]
*23 FrameData[29]
*24 FrameData[2]
*25 FrameData[30]
*26 FrameData[31]
*27 FrameData[3]
*28 FrameData[4]
*29 FrameData[5]
*30 FrameData[6]
*31 FrameData[7]
*32 FrameData[8]
*33 FrameData[9]
*34 FrameData_O[0]
*35 FrameData_O[10]
*36 FrameData_O[11]
*37 FrameData_O[12]
*38 FrameData_O[13]
*39 FrameData_O[14]
*40 FrameData_O[15]
*41 FrameData_O[16]
*42 FrameData_O[17]
*43 FrameData_O[18]
*44 FrameData_O[19]
*45 FrameData_O[1]
*46 FrameData_O[20]
*47 FrameData_O[21]
*48 FrameData_O[22]
*49 FrameData_O[23]
*50 FrameData_O[24]
*51 FrameData_O[25]
*52 FrameData_O[26]
*53 FrameData_O[27]
*54 FrameData_O[28]
*55 FrameData_O[29]
*56 FrameData_O[2]
*57 FrameData_O[30]
*58 FrameData_O[31]
*59 FrameData_O[3]
*60 FrameData_O[4]
*61 FrameData_O[5]
*62 FrameData_O[6]
*63 FrameData_O[7]
*64 FrameData_O[8]
*65 FrameData_O[9]
*66 FrameStrobe[0]
*67 FrameStrobe[10]
*68 FrameStrobe[11]
*69 FrameStrobe[12]
*70 FrameStrobe[13]
*71 FrameStrobe[14]
*72 FrameStrobe[15]
*73 FrameStrobe[16]
*74 FrameStrobe[17]
*75 FrameStrobe[18]
*76 FrameStrobe[19]
*77 FrameStrobe[1]
*78 FrameStrobe[2]
*79 FrameStrobe[3]
*80 FrameStrobe[4]
*81 FrameStrobe[5]
*82 FrameStrobe[6]
*83 FrameStrobe[7]
*84 FrameStrobe[8]
*85 FrameStrobe[9]
*86 FrameStrobe_O[0]
*87 FrameStrobe_O[10]
*88 FrameStrobe_O[11]
*89 FrameStrobe_O[12]
*90 FrameStrobe_O[13]
*91 FrameStrobe_O[14]
*92 FrameStrobe_O[15]
*93 FrameStrobe_O[16]
*94 FrameStrobe_O[17]
*95 FrameStrobe_O[18]
*96 FrameStrobe_O[19]
*97 FrameStrobe_O[1]
*98 FrameStrobe_O[2]
*99 FrameStrobe_O[3]
*100 FrameStrobe_O[4]
*101 FrameStrobe_O[5]
*102 FrameStrobe_O[6]
*103 FrameStrobe_O[7]
*104 FrameStrobe_O[8]
*105 FrameStrobe_O[9]
*106 I_top0
*107 I_top1
*108 I_top10
*109 I_top11
*110 I_top12
*111 I_top13
*112 I_top14
*113 I_top15
*114 I_top2
*115 I_top3
*116 I_top4
*117 I_top5
*118 I_top6
*119 I_top7
*120 I_top8
*121 I_top9
*122 N1BEG[0]
*123 N1BEG[1]
*124 N1BEG[2]
*125 N1BEG[3]
*126 N2BEG[0]
*127 N2BEG[1]
*128 N2BEG[2]
*129 N2BEG[3]
*130 N2BEG[4]
*131 N2BEG[5]
*132 N2BEG[6]
*133 N2BEG[7]
*134 N2BEGb[0]
*135 N2BEGb[1]
*136 N2BEGb[2]
*137 N2BEGb[3]
*138 N2BEGb[4]
*139 N2BEGb[5]
*140 N2BEGb[6]
*141 N2BEGb[7]
*142 N4BEG[0]
*143 N4BEG[10]
*144 N4BEG[11]
*145 N4BEG[12]
*146 N4BEG[13]
*147 N4BEG[14]
*148 N4BEG[15]
*149 N4BEG[1]
*150 N4BEG[2]
*151 N4BEG[3]
*152 N4BEG[4]
*153 N4BEG[5]
*154 N4BEG[6]
*155 N4BEG[7]
*156 N4BEG[8]
*157 N4BEG[9]
*158 NN4BEG[0]
*159 NN4BEG[10]
*160 NN4BEG[11]
*161 NN4BEG[12]
*162 NN4BEG[13]
*163 NN4BEG[14]
*164 NN4BEG[15]
*165 NN4BEG[1]
*166 NN4BEG[2]
*167 NN4BEG[3]
*168 NN4BEG[4]
*169 NN4BEG[5]
*170 NN4BEG[6]
*171 NN4BEG[7]
*172 NN4BEG[8]
*173 NN4BEG[9]
*174 O_top0
*175 O_top1
*176 O_top10
*177 O_top11
*178 O_top12
*179 O_top13
*180 O_top14
*181 O_top15
*182 O_top2
*183 O_top3
*184 O_top4
*185 O_top5
*186 O_top6
*187 O_top7
*188 O_top8
*189 O_top9
*190 S1END[0]
*191 S1END[1]
*192 S1END[2]
*193 S1END[3]
*194 S2END[0]
*195 S2END[1]
*196 S2END[2]
*197 S2END[3]
*198 S2END[4]
*199 S2END[5]
*200 S2END[6]
*201 S2END[7]
*202 S2MID[0]
*203 S2MID[1]
*204 S2MID[2]
*205 S2MID[3]
*206 S2MID[4]
*207 S2MID[5]
*208 S2MID[6]
*209 S2MID[7]
*210 S4END[0]
*211 S4END[10]
*212 S4END[11]
*213 S4END[12]
*214 S4END[13]
*215 S4END[14]
*216 S4END[15]
*217 S4END[1]
*218 S4END[2]
*219 S4END[3]
*220 S4END[4]
*221 S4END[5]
*222 S4END[6]
*223 S4END[7]
*224 S4END[8]
*225 S4END[9]
*226 SS4END[0]
*227 SS4END[10]
*228 SS4END[11]
*229 SS4END[12]
*230 SS4END[13]
*231 SS4END[14]
*232 SS4END[15]
*233 SS4END[1]
*234 SS4END[2]
*235 SS4END[3]
*236 SS4END[4]
*237 SS4END[5]
*238 SS4END[6]
*239 SS4END[7]
*240 SS4END[8]
*241 SS4END[9]
*242 UserCLK
*243 UserCLKo
*246 Inst_S_CPU_IF_ConfigMem\.Inst_frame0_bit0\.Q
*247 Inst_S_CPU_IF_ConfigMem\.Inst_frame0_bit1\.Q
*248 Inst_S_CPU_IF_ConfigMem\.Inst_frame0_bit10\.Q
*249 Inst_S_CPU_IF_ConfigMem\.Inst_frame0_bit11\.Q
*250 Inst_S_CPU_IF_ConfigMem\.Inst_frame0_bit12\.Q
*251 Inst_S_CPU_IF_ConfigMem\.Inst_frame0_bit13\.Q
*252 Inst_S_CPU_IF_ConfigMem\.Inst_frame0_bit14\.Q
*253 Inst_S_CPU_IF_ConfigMem\.Inst_frame0_bit15\.Q
*254 Inst_S_CPU_IF_ConfigMem\.Inst_frame0_bit16\.Q
*255 Inst_S_CPU_IF_ConfigMem\.Inst_frame0_bit17\.Q
*256 Inst_S_CPU_IF_ConfigMem\.Inst_frame0_bit18\.Q
*257 Inst_S_CPU_IF_ConfigMem\.Inst_frame0_bit19\.Q
*258 Inst_S_CPU_IF_ConfigMem\.Inst_frame0_bit2\.Q
*259 Inst_S_CPU_IF_ConfigMem\.Inst_frame0_bit20\.Q
*260 Inst_S_CPU_IF_ConfigMem\.Inst_frame0_bit21\.Q
*261 Inst_S_CPU_IF_ConfigMem\.Inst_frame0_bit22\.Q
*262 Inst_S_CPU_IF_ConfigMem\.Inst_frame0_bit23\.Q
*263 Inst_S_CPU_IF_ConfigMem\.Inst_frame0_bit24\.Q
*264 Inst_S_CPU_IF_ConfigMem\.Inst_frame0_bit25\.Q
*265 Inst_S_CPU_IF_ConfigMem\.Inst_frame0_bit26\.Q
*266 Inst_S_CPU_IF_ConfigMem\.Inst_frame0_bit27\.Q
*267 Inst_S_CPU_IF_ConfigMem\.Inst_frame0_bit28\.Q
*268 Inst_S_CPU_IF_ConfigMem\.Inst_frame0_bit29\.Q
*269 Inst_S_CPU_IF_ConfigMem\.Inst_frame0_bit3\.Q
*270 Inst_S_CPU_IF_ConfigMem\.Inst_frame0_bit30\.Q
*271 Inst_S_CPU_IF_ConfigMem\.Inst_frame0_bit31\.Q
*272 Inst_S_CPU_IF_ConfigMem\.Inst_frame0_bit4\.Q
*273 Inst_S_CPU_IF_ConfigMem\.Inst_frame0_bit5\.Q
*274 Inst_S_CPU_IF_ConfigMem\.Inst_frame0_bit6\.Q
*275 Inst_S_CPU_IF_ConfigMem\.Inst_frame0_bit7\.Q
*276 Inst_S_CPU_IF_ConfigMem\.Inst_frame0_bit8\.Q
*277 Inst_S_CPU_IF_ConfigMem\.Inst_frame0_bit9\.Q
*278 Inst_S_CPU_IF_ConfigMem\.Inst_frame1_bit0\.Q
*279 Inst_S_CPU_IF_ConfigMem\.Inst_frame1_bit1\.Q
*280 Inst_S_CPU_IF_ConfigMem\.Inst_frame1_bit10\.Q
*281 Inst_S_CPU_IF_ConfigMem\.Inst_frame1_bit11\.Q
*282 Inst_S_CPU_IF_ConfigMem\.Inst_frame1_bit12\.Q
*283 Inst_S_CPU_IF_ConfigMem\.Inst_frame1_bit13\.Q
*284 Inst_S_CPU_IF_ConfigMem\.Inst_frame1_bit14\.Q
*285 Inst_S_CPU_IF_ConfigMem\.Inst_frame1_bit15\.Q
*286 Inst_S_CPU_IF_ConfigMem\.Inst_frame1_bit16\.Q
*287 Inst_S_CPU_IF_ConfigMem\.Inst_frame1_bit17\.Q
*288 Inst_S_CPU_IF_ConfigMem\.Inst_frame1_bit18\.Q
*289 Inst_S_CPU_IF_ConfigMem\.Inst_frame1_bit19\.Q
*290 Inst_S_CPU_IF_ConfigMem\.Inst_frame1_bit2\.Q
*291 Inst_S_CPU_IF_ConfigMem\.Inst_frame1_bit20\.Q
*292 Inst_S_CPU_IF_ConfigMem\.Inst_frame1_bit21\.Q
*293 Inst_S_CPU_IF_ConfigMem\.Inst_frame1_bit22\.Q
*294 Inst_S_CPU_IF_ConfigMem\.Inst_frame1_bit23\.Q
*295 Inst_S_CPU_IF_ConfigMem\.Inst_frame1_bit24\.Q
*296 Inst_S_CPU_IF_ConfigMem\.Inst_frame1_bit25\.Q
*297 Inst_S_CPU_IF_ConfigMem\.Inst_frame1_bit26\.Q
*298 Inst_S_CPU_IF_ConfigMem\.Inst_frame1_bit27\.Q
*299 Inst_S_CPU_IF_ConfigMem\.Inst_frame1_bit28\.Q
*300 Inst_S_CPU_IF_ConfigMem\.Inst_frame1_bit29\.Q
*301 Inst_S_CPU_IF_ConfigMem\.Inst_frame1_bit3\.Q
*302 Inst_S_CPU_IF_ConfigMem\.Inst_frame1_bit30\.Q
*303 Inst_S_CPU_IF_ConfigMem\.Inst_frame1_bit31\.Q
*304 Inst_S_CPU_IF_ConfigMem\.Inst_frame1_bit4\.Q
*305 Inst_S_CPU_IF_ConfigMem\.Inst_frame1_bit5\.Q
*306 Inst_S_CPU_IF_ConfigMem\.Inst_frame1_bit6\.Q
*307 Inst_S_CPU_IF_ConfigMem\.Inst_frame1_bit7\.Q
*308 Inst_S_CPU_IF_ConfigMem\.Inst_frame1_bit8\.Q
*309 Inst_S_CPU_IF_ConfigMem\.Inst_frame1_bit9\.Q
*310 Inst_S_CPU_IF_ConfigMem\.Inst_frame2_bit10\.Q
*311 Inst_S_CPU_IF_ConfigMem\.Inst_frame2_bit11\.Q
*312 Inst_S_CPU_IF_ConfigMem\.Inst_frame2_bit12\.Q
*313 Inst_S_CPU_IF_ConfigMem\.Inst_frame2_bit13\.Q
*314 Inst_S_CPU_IF_ConfigMem\.Inst_frame2_bit14\.Q
*315 Inst_S_CPU_IF_ConfigMem\.Inst_frame2_bit15\.Q
*316 Inst_S_CPU_IF_ConfigMem\.Inst_frame2_bit16\.Q
*317 Inst_S_CPU_IF_ConfigMem\.Inst_frame2_bit17\.Q
*318 Inst_S_CPU_IF_ConfigMem\.Inst_frame2_bit18\.Q
*319 Inst_S_CPU_IF_ConfigMem\.Inst_frame2_bit19\.Q
*320 Inst_S_CPU_IF_ConfigMem\.Inst_frame2_bit20\.Q
*321 Inst_S_CPU_IF_ConfigMem\.Inst_frame2_bit21\.Q
*322 Inst_S_CPU_IF_ConfigMem\.Inst_frame2_bit22\.Q
*323 Inst_S_CPU_IF_ConfigMem\.Inst_frame2_bit23\.Q
*324 Inst_S_CPU_IF_ConfigMem\.Inst_frame2_bit24\.Q
*325 Inst_S_CPU_IF_ConfigMem\.Inst_frame2_bit25\.Q
*326 Inst_S_CPU_IF_ConfigMem\.Inst_frame2_bit26\.Q
*327 Inst_S_CPU_IF_ConfigMem\.Inst_frame2_bit27\.Q
*328 Inst_S_CPU_IF_ConfigMem\.Inst_frame2_bit28\.Q
*329 Inst_S_CPU_IF_ConfigMem\.Inst_frame2_bit29\.Q
*330 Inst_S_CPU_IF_ConfigMem\.Inst_frame2_bit30\.Q
*331 Inst_S_CPU_IF_ConfigMem\.Inst_frame2_bit31\.Q
*332 Inst_S_CPU_IF_ConfigMem\.Inst_frame2_bit8\.Q
*333 Inst_S_CPU_IF_ConfigMem\.Inst_frame2_bit9\.Q
*334 Inst_S_CPU_IF_switch_matrix\.N1BEG0
*335 Inst_S_CPU_IF_switch_matrix\.N1BEG1
*336 Inst_S_CPU_IF_switch_matrix\.N1BEG2
*337 Inst_S_CPU_IF_switch_matrix\.N1BEG3
*338 Inst_S_CPU_IF_switch_matrix\.N2BEG0
*339 Inst_S_CPU_IF_switch_matrix\.N2BEG1
*340 Inst_S_CPU_IF_switch_matrix\.N2BEG2
*341 Inst_S_CPU_IF_switch_matrix\.N2BEG3
*342 Inst_S_CPU_IF_switch_matrix\.N2BEG4
*343 Inst_S_CPU_IF_switch_matrix\.N2BEG5
*344 Inst_S_CPU_IF_switch_matrix\.N2BEG6
*345 Inst_S_CPU_IF_switch_matrix\.N2BEG7
*346 Inst_S_CPU_IF_switch_matrix\.N2BEGb0
*347 Inst_S_CPU_IF_switch_matrix\.N2BEGb1
*348 Inst_S_CPU_IF_switch_matrix\.N2BEGb2
*349 Inst_S_CPU_IF_switch_matrix\.N2BEGb3
*350 Inst_S_CPU_IF_switch_matrix\.N2BEGb4
*351 Inst_S_CPU_IF_switch_matrix\.N2BEGb5
*352 Inst_S_CPU_IF_switch_matrix\.N2BEGb6
*353 Inst_S_CPU_IF_switch_matrix\.N2BEGb7
*354 Inst_S_CPU_IF_switch_matrix\.N4BEG0
*355 Inst_S_CPU_IF_switch_matrix\.N4BEG1
*356 Inst_S_CPU_IF_switch_matrix\.N4BEG10
*357 Inst_S_CPU_IF_switch_matrix\.N4BEG11
*358 Inst_S_CPU_IF_switch_matrix\.N4BEG12
*359 Inst_S_CPU_IF_switch_matrix\.N4BEG13
*360 Inst_S_CPU_IF_switch_matrix\.N4BEG14
*361 Inst_S_CPU_IF_switch_matrix\.N4BEG15
*362 Inst_S_CPU_IF_switch_matrix\.N4BEG2
*363 Inst_S_CPU_IF_switch_matrix\.N4BEG3
*364 Inst_S_CPU_IF_switch_matrix\.N4BEG4
*365 Inst_S_CPU_IF_switch_matrix\.N4BEG5
*366 Inst_S_CPU_IF_switch_matrix\.N4BEG6
*367 Inst_S_CPU_IF_switch_matrix\.N4BEG7
*368 Inst_S_CPU_IF_switch_matrix\.N4BEG8
*369 Inst_S_CPU_IF_switch_matrix\.N4BEG9
*370 Inst_S_CPU_IF_switch_matrix\.NN4BEG0
*371 Inst_S_CPU_IF_switch_matrix\.NN4BEG1
*372 Inst_S_CPU_IF_switch_matrix\.NN4BEG10
*373 Inst_S_CPU_IF_switch_matrix\.NN4BEG11
*374 Inst_S_CPU_IF_switch_matrix\.NN4BEG12
*375 Inst_S_CPU_IF_switch_matrix\.NN4BEG13
*376 Inst_S_CPU_IF_switch_matrix\.NN4BEG14
*377 Inst_S_CPU_IF_switch_matrix\.NN4BEG15
*378 Inst_S_CPU_IF_switch_matrix\.NN4BEG2
*379 Inst_S_CPU_IF_switch_matrix\.NN4BEG3
*380 Inst_S_CPU_IF_switch_matrix\.NN4BEG4
*381 Inst_S_CPU_IF_switch_matrix\.NN4BEG5
*382 Inst_S_CPU_IF_switch_matrix\.NN4BEG6
*383 Inst_S_CPU_IF_switch_matrix\.NN4BEG7
*384 Inst_S_CPU_IF_switch_matrix\.NN4BEG8
*385 Inst_S_CPU_IF_switch_matrix\.NN4BEG9
*386 net1
*387 net10
*388 net100
*389 net101
*390 net102
*391 net103
*392 net104
*393 net105
*394 net106
*395 net107
*396 net108
*397 net109
*398 net11
*399 net110
*400 net111
*401 net112
*402 net113
*403 net114
*404 net115
*405 net116
*406 net117
*407 net118
*408 net119
*409 net12
*410 net120
*411 net121
*412 net122
*413 net123
*414 net124
*415 net125
*416 net126
*417 net127
*418 net128
*419 net129
*420 net13
*421 net130
*422 net131
*423 net132
*424 net133
*425 net134
*426 net135
*427 net136
*428 net137
*429 net138
*430 net139
*431 net14
*432 net140
*433 net141
*434 net142
*435 net143
*436 net144
*437 net145
*438 net146
*439 net147
*440 net148
*441 net149
*442 net15
*443 net150
*444 net151
*445 net152
*446 net153
*447 net154
*448 net155
*449 net156
*450 net157
*451 net158
*452 net159
*453 net16
*454 net160
*455 net161
*456 net162
*457 net163
*458 net164
*459 net165
*460 net166
*461 net167
*462 net168
*463 net169
*464 net17
*465 net170
*466 net171
*467 net172
*468 net173
*469 net174
*470 net175
*471 net176
*472 net177
*473 net178
*474 net179
*475 net18
*476 net180
*477 net181
*478 net182
*479 net183
*480 net184
*481 net185
*482 net186
*483 net187
*484 net188
*485 net189
*486 net19
*487 net190
*488 net191
*489 net192
*490 net193
*491 net194
*492 net195
*493 net196
*494 net197
*495 net198
*496 net199
*497 net2
*498 net20
*499 net200
*500 net201
*501 net202
*502 net203
*503 net204
*504 net205
*505 net206
*506 net207
*507 net208
*508 net209
*509 net21
*510 net210
*511 net211
*512 net212
*513 net213
*514 net214
*515 net215
*516 net216
*517 net217
*518 net218
*519 net219
*520 net22
*521 net220
*522 net221
*523 net222
*524 net223
*525 net224
*526 net225
*527 net226
*528 net227
*529 net228
*530 net229
*531 net23
*532 net230
*533 net231
*534 net232
*535 net233
*536 net234
*537 net235
*538 net236
*539 net24
*540 net25
*541 net26
*542 net27
*543 net28
*544 net29
*545 net3
*546 net30
*547 net31
*548 net32
*549 net33
*550 net34
*551 net35
*552 net36
*553 net37
*554 net38
*555 net39
*556 net4
*557 net40
*558 net41
*559 net42
*560 net43
*561 net44
*562 net45
*563 net46
*564 net47
*565 net48
*566 net49
*567 net5
*568 net50
*569 net51
*570 net52
*571 net53
*572 net54
*573 net55
*574 net56
*575 net57
*576 net58
*577 net59
*578 net6
*579 net60
*580 net61
*581 net62
*582 net63
*583 net64
*584 net65
*585 net66
*586 net67
*587 net68
*588 net69
*589 net7
*590 net70
*591 net71
*592 net72
*593 net73
*594 net74
*595 net75
*596 net76
*597 net77
*598 net78
*599 net79
*600 net8
*601 net80
*602 net81
*603 net82
*604 net83
*605 net84
*606 net85
*607 net86
*608 net87
*609 net88
*610 net89
*611 net9
*612 net90
*613 net91
*614 net92
*615 net93
*616 net94
*617 net95
*618 net96
*619 net97
*620 net98
*621 net99
*622 ANTENNA_1
*623 ANTENNA_10
*624 ANTENNA_11
*625 ANTENNA_12
*626 ANTENNA_13
*627 ANTENNA_14
*628 ANTENNA_15
*629 ANTENNA_16
*630 ANTENNA_17
*631 ANTENNA_18
*632 ANTENNA_19
*633 ANTENNA_2
*634 ANTENNA_20
*635 ANTENNA_21
*636 ANTENNA_22
*637 ANTENNA_23
*638 ANTENNA_24
*639 ANTENNA_25
*640 ANTENNA_26
*641 ANTENNA_27
*642 ANTENNA_28
*643 ANTENNA_29
*644 ANTENNA_3
*645 ANTENNA_30
*646 ANTENNA_31
*647 ANTENNA_32
*648 ANTENNA_33
*649 ANTENNA_34
*650 ANTENNA_35
*651 ANTENNA_36
*652 ANTENNA_37
*653 ANTENNA_38
*654 ANTENNA_39
*655 ANTENNA_4
*656 ANTENNA_40
*657 ANTENNA_41
*658 ANTENNA_42
*659 ANTENNA_43
*660 ANTENNA_44
*661 ANTENNA_45
*662 ANTENNA_46
*663 ANTENNA_47
*664 ANTENNA_48
*665 ANTENNA_49
*666 ANTENNA_5
*667 ANTENNA_50
*668 ANTENNA_51
*669 ANTENNA_52
*670 ANTENNA_53
*671 ANTENNA_54
*672 ANTENNA_55
*673 ANTENNA_56
*674 ANTENNA_57
*675 ANTENNA_58
*676 ANTENNA_59
*677 ANTENNA_6
*678 ANTENNA_60
*679 ANTENNA_61
*680 ANTENNA_62
*681 ANTENNA_63
*682 ANTENNA_64
*683 ANTENNA_65
*684 ANTENNA_66
*685 ANTENNA_67
*686 ANTENNA_68
*687 ANTENNA_69
*688 ANTENNA_7
*689 ANTENNA_70
*690 ANTENNA_8
*691 ANTENNA_9
*692 FILLER_0_105
*693 FILLER_0_145
*694 FILLER_0_147
*695 FILLER_0_16
*696 FILLER_0_193
*697 FILLER_0_20
*698 FILLER_0_219
*699 FILLER_0_225
*700 FILLER_0_227
*701 FILLER_0_25
*702 FILLER_0_275
*703 FILLER_0_277
*704 FILLER_0_302
*705 FILLER_0_309
*706 FILLER_0_313
*707 FILLER_0_318
*708 FILLER_0_323
*709 FILLER_0_327
*710 FILLER_0_33
*711 FILLER_0_346
*712 FILLER_0_350
*713 FILLER_0_355
*714 FILLER_0_362
*715 FILLER_0_369
*716 FILLER_0_374
*717 FILLER_0_381
*718 FILLER_0_388
*719 FILLER_0_392
*720 FILLER_0_398
*721 FILLER_0_405
*722 FILLER_0_413
*723 FILLER_0_451
*724 FILLER_10_102
*725 FILLER_10_104
*726 FILLER_10_134
*727 FILLER_10_199
*728 FILLER_10_201
*729 FILLER_10_24
*730 FILLER_10_264
*731 FILLER_10_31
*732 FILLER_10_349
*733 FILLER_10_38
*734 FILLER_10_404
*735 FILLER_10_439
*736 FILLER_10_45
*737 FILLER_10_52
*738 FILLER_1_12
*739 FILLER_1_171
*740 FILLER_1_19
*741 FILLER_1_207
*742 FILLER_1_225
*743 FILLER_1_258
*744 FILLER_1_26
*745 FILLER_1_280
*746 FILLER_1_33
*747 FILLER_1_344
*748 FILLER_1_348
*749 FILLER_1_364
*750 FILLER_1_40
*751 FILLER_1_400
*752 FILLER_1_407
*753 FILLER_1_411
*754 FILLER_1_42
*755 FILLER_1_434
*756 FILLER_1_64
*757 FILLER_1_83
*758 FILLER_2_103
*759 FILLER_2_105
*760 FILLER_2_137
*761 FILLER_2_139
*762 FILLER_2_15
*763 FILLER_2_165
*764 FILLER_2_172
*765 FILLER_2_191
*766 FILLER_2_198
*767 FILLER_2_205
*768 FILLER_2_210
*769 FILLER_2_217
*770 FILLER_2_22
*771 FILLER_2_224
*772 FILLER_2_231
*773 FILLER_2_235
*774 FILLER_2_250
*775 FILLER_2_252
*776 FILLER_2_257
*777 FILLER_2_26
*778 FILLER_2_261
*779 FILLER_2_279
*780 FILLER_2_286
*781 FILLER_2_297
*782 FILLER_2_302
*783 FILLER_2_304
*784 FILLER_2_322
*785 FILLER_2_326
*786 FILLER_2_342
*787 FILLER_2_349
*788 FILLER_2_356
*789 FILLER_2_363
*790 FILLER_2_381
*791 FILLER_2_404
*792 FILLER_2_411
*793 FILLER_2_442
*794 FILLER_2_45
*795 FILLER_2_454
*796 FILLER_2_52
*797 FILLER_2_59
*798 FILLER_2_63
*799 FILLER_2_8
*800 FILLER_2_82
*801 FILLER_2_89
*802 FILLER_2_96
*803 FILLER_3_101
*804 FILLER_3_106
*805 FILLER_3_113
*806 FILLER_3_132
*807 FILLER_3_137
*808 FILLER_3_141
*809 FILLER_3_15
*810 FILLER_3_153
*811 FILLER_3_160
*812 FILLER_3_162
*813 FILLER_3_22
*814 FILLER_3_222
*815 FILLER_3_229
*816 FILLER_3_233
*817 FILLER_3_273
*818 FILLER_3_29
*819 FILLER_3_296
*820 FILLER_3_314
*821 FILLER_3_321
*822 FILLER_3_325
*823 FILLER_3_34
*824 FILLER_3_355
*825 FILLER_3_36
*826 FILLER_3_366
*827 FILLER_3_373
*828 FILLER_3_439
*829 FILLER_3_446
*830 FILLER_3_58
*831 FILLER_3_8
*832 FILLER_3_99
*833 FILLER_4_104
*834 FILLER_4_106
*835 FILLER_4_115
*836 FILLER_4_133
*837 FILLER_4_135
*838 FILLER_4_15
*839 FILLER_4_161
*840 FILLER_4_182
*841 FILLER_4_189
*842 FILLER_4_201
*843 FILLER_4_205
*844 FILLER_4_22
*845 FILLER_4_224
*846 FILLER_4_243
*847 FILLER_4_250
*848 FILLER_4_257
*849 FILLER_4_262
*850 FILLER_4_269
*851 FILLER_4_276
*852 FILLER_4_283
*853 FILLER_4_29
*854 FILLER_4_290
*855 FILLER_4_295
*856 FILLER_4_302
*857 FILLER_4_309
*858 FILLER_4_316
*859 FILLER_4_323
*860 FILLER_4_330
*861 FILLER_4_345
*862 FILLER_4_349
*863 FILLER_4_36
*864 FILLER_4_368
*865 FILLER_4_375
*866 FILLER_4_397
*867 FILLER_4_404
*868 FILLER_4_406
*869 FILLER_4_421
*870 FILLER_4_428
*871 FILLER_4_441
*872 FILLER_4_446
*873 FILLER_4_63
*874 FILLER_4_65
*875 FILLER_4_8
*876 FILLER_5_116
*877 FILLER_5_12
*878 FILLER_5_125
*879 FILLER_5_168
*880 FILLER_5_19
*881 FILLER_5_192
*882 FILLER_5_213
*883 FILLER_5_217
*884 FILLER_5_222
*885 FILLER_5_23
*886 FILLER_5_243
*887 FILLER_5_250
*888 FILLER_5_272
*889 FILLER_5_274
*890 FILLER_5_296
*891 FILLER_5_302
*892 FILLER_5_304
*893 FILLER_5_367
*894 FILLER_5_374
*895 FILLER_5_379
*896 FILLER_5_387
*897 FILLER_5_406
*898 FILLER_5_408
*899 FILLER_5_41
*900 FILLER_5_426
*901 FILLER_5_442
*902 FILLER_5_446
*903 FILLER_5_59
*904 FILLER_5_66
*905 FILLER_5_73
*906 FILLER_5_75
*907 FILLER_5_86
*908 FILLER_5_93
*909 FILLER_6_144
*910 FILLER_6_146
*911 FILLER_6_15
*912 FILLER_6_151
*913 FILLER_6_202
*914 FILLER_6_22
*915 FILLER_6_245
*916 FILLER_6_247
*917 FILLER_6_265
*918 FILLER_6_269
*919 FILLER_6_274
*920 FILLER_6_278
*921 FILLER_6_283
*922 FILLER_6_301
*923 FILLER_6_357
*924 FILLER_6_359
*925 FILLER_6_387
*926 FILLER_6_391
*927 FILLER_6_414
*928 FILLER_6_43
*929 FILLER_6_439
*930 FILLER_6_45
*931 FILLER_6_450
*932 FILLER_6_8
*933 FILLER_6_84
*934 FILLER_7_107
*935 FILLER_7_15
*936 FILLER_7_182
*937 FILLER_7_22
*938 FILLER_7_236
*939 FILLER_7_241
*940 FILLER_7_248
*941 FILLER_7_253
*942 FILLER_7_263
*943 FILLER_7_267
*944 FILLER_7_273
*945 FILLER_7_28
*946 FILLER_7_344
*947 FILLER_7_35
*948 FILLER_7_382
*949 FILLER_7_389
*950 FILLER_7_396
*951 FILLER_7_415
*952 FILLER_7_42
*953 FILLER_7_429
*954 FILLER_7_49
*955 FILLER_7_57
*956 FILLER_7_64
*957 FILLER_7_71
*958 FILLER_7_8
*959 FILLER_7_94
*960 FILLER_7_96
*961 FILLER_8_133
*962 FILLER_8_135
*963 FILLER_8_15
*964 FILLER_8_153
*965 FILLER_8_155
*966 FILLER_8_185
*967 FILLER_8_187
*968 FILLER_8_198
*969 FILLER_8_200
*970 FILLER_8_22
*971 FILLER_8_235
*972 FILLER_8_259
*973 FILLER_8_29
*974 FILLER_8_311
*975 FILLER_8_313
*976 FILLER_8_352
*977 FILLER_8_376
*978 FILLER_8_395
*979 FILLER_8_397
*980 FILLER_8_402
*981 FILLER_8_409
*982 FILLER_8_413
*983 FILLER_8_421
*984 FILLER_8_51
*985 FILLER_8_58
*986 FILLER_8_65
*987 FILLER_8_8
*988 FILLER_8_83
*989 FILLER_8_85
*990 FILLER_9_101
*991 FILLER_9_103
*992 FILLER_9_121
*993 FILLER_9_151
*994 FILLER_9_16
*995 FILLER_9_174
*996 FILLER_9_23
*997 FILLER_9_263
*998 FILLER_9_265
*999 FILLER_9_288
*1000 FILLER_9_30
*1001 FILLER_9_32
*1002 FILLER_9_332
*1003 FILLER_9_343
*1004 FILLER_9_359
*1005 FILLER_9_361
*1006 FILLER_9_407
*1007 FILLER_9_451
*1008 FILLER_9_50
*1009 FILLER_9_57
*1010 FILLER_9_75
*1011 S_CPU_IF_222
*1012 _000_
*1013 _001_
*1014 _002_
*1015 _003_
*1016 _004_
*1017 _005_
*1018 _006_
*1019 _007_
*1020 _008_
*1021 _009_
*1022 _010_
*1023 _011_
*1024 _012_
*1025 _013_
*1026 _014_
*1027 _015_
*1028 _016_
*1029 _017_
*1030 _018_
*1031 _019_
*1032 _020_
*1033 _021_
*1034 _022_
*1035 _023_
*1036 _024_
*1037 _025_
*1038 _026_
*1039 _027_
*1040 _028_
*1041 _029_
*1042 _030_
*1043 _031_
*1044 _032_
*1045 _033_
*1046 _034_
*1047 _035_
*1048 _036_
*1049 _037_
*1050 _038_
*1051 _039_
*1052 _040_
*1053 _041_
*1054 _042_
*1055 _043_
*1056 _044_
*1057 _045_
*1058 _046_
*1059 _047_
*1060 _048_
*1061 _049_
*1062 _050_
*1063 _051_
*1064 _052_
*1065 _053_
*1066 _054_
*1067 _055_
*1068 _056_
*1069 _057_
*1070 _058_
*1071 _059_
*1072 _060_
*1073 _061_
*1074 _062_
*1075 _063_
*1076 _064_
*1077 _065_
*1078 _066_
*1079 _067_
*1080 _068_
*1081 _069_
*1082 _070_
*1083 _071_
*1084 _072_
*1085 _073_
*1086 _074_
*1087 _075_
*1088 _076_
*1089 _077_
*1090 _078_
*1091 _079_
*1092 _080_
*1093 _081_
*1094 _082_
*1095 _083_
*1096 _084_
*1097 _085_
*1098 _086_
*1099 _087_
*1100 _088_
*1101 _089_
*1102 _090_
*1103 _091_
*1104 _092_
*1105 _093_
*1106 _094_
*1107 _095_
*1108 _096_
*1109 _097_
*1110 _098_
*1111 _099_
*1112 _100_
*1113 _101_
*1114 _102_
*1115 _103_
*1116 _104_
*1117 _105_
*1118 _106_
*1119 _107_
*1120 _108_
*1121 _109_
*1122 _110_
*1123 _111_
*1124 _112_
*1125 _113_
*1126 _114_
*1127 _115_
*1128 _116_
*1129 _117_
*1130 _118_
*1131 _119_
*1132 _120_
*1133 _121_
*1134 _122_
*1135 _123_
*1136 _124_
*1137 _125_
*1138 _126_
*1139 _127_
*1140 _128_
*1141 _129_
*1142 _130_
*1143 _131_
*1144 _132_
*1145 _133_
*1146 _134_
*1147 _135_
*1148 _136_
*1149 _137_
*1150 _138_
*1151 _139_
*1152 _140_
*1153 _141_
*1154 _142_
*1155 _143_
*1156 _144_
*1157 _145_
*1158 _146_
*1159 _147_
*1160 _148_
*1161 _149_
*1162 _150_
*1163 _151_
*1164 _152_
*1165 _153_
*1166 _154_
*1167 _155_
*1168 _157_
*1169 _158_
*1170 _159_
*1171 _160_
*1172 _161_
*1173 _162_
*1174 _163_
*1175 _164_
*1176 _165_
*1177 _166_
*1178 _167_
*1179 _168_
*1180 _169_
*1181 _170_
*1182 _171_
*1183 _172_
*1184 _173_
*1185 _174_
*1186 _175_
*1187 _176_
*1188 _177_
*1189 _178_
*1190 _179_
*1191 _180_
*1192 _181_
*1193 _182_
*1194 _183_
*1195 _184_
*1196 _185_
*1197 _186_
*1198 _187_
*1199 _188_
*1200 _189_
*1201 _190_
*1202 _191_
*1203 _192_
*1204 _193_
*1205 _194_
*1206 _195_
*1207 _196_
*1208 _197_
*1209 _198_
*1210 _199_
*1211 _200_
*1212 _201_
*1213 _202_
*1214 _203_
*1215 _204_
*1216 _205_
*1217 _206_
*1218 _207_
*1219 _208_
*1220 _209_
*1221 _210_
*1222 _211_
*1223 _212_
*1224 _213_
*1225 _214_
*1226 _215_
*1227 _216_
*1228 _217_
*1229 _218_
*1230 _219_
*1231 _220_
*1232 _221_
*1233 _222_
*1234 _223_
*1235 _224_
*1236 _225_
*1237 _226_
*1238 _227_
*1239 _228_
*1240 _229_
*1241 _230_
*1242 _231_
*1243 _232_
*1244 _233_
*1245 _234_
*1246 _235_
*1247 _236_
*1248 _237_
*1249 _238_
*1250 _239_
*1251 _240_
*1252 _241_
*1253 _242_
*1254 _243_
*1255 _244_
*1256 _245_
*1257 _246_
*1258 _247_
*1259 _248_
*1260 _249_
*1261 _250_
*1262 _251_
*1263 _252_
*1264 _253_
*1265 _254_
*1266 _255_
*1267 _256_
*1268 _257_
*1269 _258_
*1270 _259_
*1271 _260_
*1272 _261_
*1273 fanout44
*1274 fanout45
*1275 fanout46
*1276 fanout47
*1277 fanout48
*1278 fanout49
*1279 fanout50
*1280 fanout51
*1281 fanout52
*1282 fanout53
*1283 fanout54
*1284 fanout55
*1285 fanout56
*1286 fanout57
*1287 fanout58
*1288 input1
*1289 input10
*1290 input100
*1291 input11
*1292 input12
*1293 input13
*1294 input14
*1295 input15
*1296 input16
*1297 input17
*1298 input18
*1299 input19
*1300 input2
*1301 input20
*1302 input21
*1303 input22
*1304 input23
*1305 input24
*1306 input25
*1307 input26
*1308 input27
*1309 input28
*1310 input29
*1311 input3
*1312 input30
*1313 input31
*1314 input32
*1315 input33
*1316 input34
*1317 input35
*1318 input36
*1319 input37
*1320 input38
*1321 input39
*1322 input4
*1323 input40
*1324 input41
*1325 input42
*1326 input43
*1327 input44
*1328 input45
*1329 input46
*1330 input47
*1331 input48
*1332 input49
*1333 input5
*1334 input50
*1335 input51
*1336 input52
*1337 input53
*1338 input54
*1339 input55
*1340 input56
*1341 input57
*1342 input58
*1343 input59
*1344 input6
*1345 input60
*1346 input61
*1347 input62
*1348 input63
*1349 input64
*1350 input65
*1351 input66
*1352 input67
*1353 input68
*1354 input69
*1355 input7
*1356 input70
*1357 input71
*1358 input72
*1359 input73
*1360 input74
*1361 input75
*1362 input76
*1363 input77
*1364 input78
*1365 input79
*1366 input8
*1367 input80
*1368 input81
*1369 input82
*1370 input83
*1371 input84
*1372 input85
*1373 input86
*1374 input87
*1375 input88
*1376 input89
*1377 input9
*1378 input90
*1379 input91
*1380 input92
*1381 input93
*1382 input94
*1383 input95
*1384 input96
*1385 input97
*1386 input98
*1387 input99
*1388 output101
*1389 output102
*1390 output103
*1391 output104
*1392 output105
*1393 output106
*1394 output107
*1395 output108
*1396 output109
*1397 output110
*1398 output111
*1399 output112
*1400 output113
*1401 output114
*1402 output115
*1403 output116
*1404 output117
*1405 output118
*1406 output119
*1407 output120
*1408 output121
*1409 output122
*1410 output123
*1411 output124
*1412 output125
*1413 output126
*1414 output127
*1415 output128
*1416 output129
*1417 output130
*1418 output131
*1419 output132
*1420 output133
*1421 output134
*1422 output135
*1423 output136
*1424 output137
*1425 output138
*1426 output139
*1427 output140
*1428 output141
*1429 output142
*1430 output143
*1431 output144
*1432 output145
*1433 output146
*1434 output147
*1435 output148
*1436 output149
*1437 output150
*1438 output151
*1439 output152
*1440 output153
*1441 output154
*1442 output155
*1443 output156
*1444 output157
*1445 output158
*1446 output159
*1447 output160
*1448 output161
*1449 output162
*1450 output163
*1451 output164
*1452 output165
*1453 output166
*1454 output167
*1455 output168
*1456 output169
*1457 output170
*1458 output171
*1459 output172
*1460 output173
*1461 output174
*1462 output175
*1463 output176
*1464 output177
*1465 output178
*1466 output179
*1467 output180
*1468 output181
*1469 output182
*1470 output183
*1471 output184
*1472 output185
*1473 output186
*1474 output187
*1475 output188
*1476 output189
*1477 output190
*1478 output191
*1479 output192
*1480 output193
*1481 output194
*1482 output195
*1483 output196
*1484 output197
*1485 output198
*1486 output199
*1487 output200
*1488 output201
*1489 output202
*1490 output203
*1491 output204
*1492 output205
*1493 output206
*1494 output207
*1495 output208
*1496 output209
*1497 output210
*1498 output211
*1499 output212
*1500 output213
*1501 output214
*1502 output215
*1503 output216
*1504 output217
*1505 output218
*1506 output219
*1507 output220
*1508 output221

*PORTS
Co O
FrameData[0] I
FrameData[10] I
FrameData[11] I
FrameData[12] I
FrameData[13] I
FrameData[14] I
FrameData[15] I
FrameData[16] I
FrameData[17] I
FrameData[18] I
FrameData[19] I
FrameData[1] I
FrameData[20] I
FrameData[21] I
FrameData[22] I
FrameData[23] I
FrameData[24] I
FrameData[25] I
FrameData[26] I
FrameData[27] I
FrameData[28] I
FrameData[29] I
FrameData[2] I
FrameData[30] I
FrameData[31] I
FrameData[3] I
FrameData[4] I
FrameData[5] I
FrameData[6] I
FrameData[7] I
FrameData[8] I
FrameData[9] I
FrameData_O[0] O
FrameData_O[10] O
FrameData_O[11] O
FrameData_O[12] O
FrameData_O[13] O
FrameData_O[14] O
FrameData_O[15] O
FrameData_O[16] O
FrameData_O[17] O
FrameData_O[18] O
FrameData_O[19] O
FrameData_O[1] O
FrameData_O[20] O
FrameData_O[21] O
FrameData_O[22] O
FrameData_O[23] O
FrameData_O[24] O
FrameData_O[25] O
FrameData_O[26] O
FrameData_O[27] O
FrameData_O[28] O
FrameData_O[29] O
FrameData_O[2] O
FrameData_O[30] O
FrameData_O[31] O
FrameData_O[3] O
FrameData_O[4] O
FrameData_O[5] O
FrameData_O[6] O
FrameData_O[7] O
FrameData_O[8] O
FrameData_O[9] O
FrameStrobe[0] I
FrameStrobe[10] I
FrameStrobe[11] I
FrameStrobe[12] I
FrameStrobe[13] I
FrameStrobe[14] I
FrameStrobe[15] I
FrameStrobe[16] I
FrameStrobe[17] I
FrameStrobe[18] I
FrameStrobe[19] I
FrameStrobe[1] I
FrameStrobe[2] I
FrameStrobe[3] I
FrameStrobe[4] I
FrameStrobe[5] I
FrameStrobe[6] I
FrameStrobe[7] I
FrameStrobe[8] I
FrameStrobe[9] I
FrameStrobe_O[0] O
FrameStrobe_O[10] O
FrameStrobe_O[11] O
FrameStrobe_O[12] O
FrameStrobe_O[13] O
FrameStrobe_O[14] O
FrameStrobe_O[15] O
FrameStrobe_O[16] O
FrameStrobe_O[17] O
FrameStrobe_O[18] O
FrameStrobe_O[19] O
FrameStrobe_O[1] O
FrameStrobe_O[2] O
FrameStrobe_O[3] O
FrameStrobe_O[4] O
FrameStrobe_O[5] O
FrameStrobe_O[6] O
FrameStrobe_O[7] O
FrameStrobe_O[8] O
FrameStrobe_O[9] O
I_top0 O
I_top1 O
I_top10 O
I_top11 O
I_top12 O
I_top13 O
I_top14 O
I_top15 O
I_top2 O
I_top3 O
I_top4 O
I_top5 O
I_top6 O
I_top7 O
I_top8 O
I_top9 O
N1BEG[0] O
N1BEG[1] O
N1BEG[2] O
N1BEG[3] O
N2BEG[0] O
N2BEG[1] O
N2BEG[2] O
N2BEG[3] O
N2BEG[4] O
N2BEG[5] O
N2BEG[6] O
N2BEG[7] O
N2BEGb[0] O
N2BEGb[1] O
N2BEGb[2] O
N2BEGb[3] O
N2BEGb[4] O
N2BEGb[5] O
N2BEGb[6] O
N2BEGb[7] O
N4BEG[0] O
N4BEG[10] O
N4BEG[11] O
N4BEG[12] O
N4BEG[13] O
N4BEG[14] O
N4BEG[15] O
N4BEG[1] O
N4BEG[2] O
N4BEG[3] O
N4BEG[4] O
N4BEG[5] O
N4BEG[6] O
N4BEG[7] O
N4BEG[8] O
N4BEG[9] O
NN4BEG[0] O
NN4BEG[10] O
NN4BEG[11] O
NN4BEG[12] O
NN4BEG[13] O
NN4BEG[14] O
NN4BEG[15] O
NN4BEG[1] O
NN4BEG[2] O
NN4BEG[3] O
NN4BEG[4] O
NN4BEG[5] O
NN4BEG[6] O
NN4BEG[7] O
NN4BEG[8] O
NN4BEG[9] O
O_top0 I
O_top1 I
O_top10 I
O_top11 I
O_top12 I
O_top13 I
O_top14 I
O_top15 I
O_top2 I
O_top3 I
O_top4 I
O_top5 I
O_top6 I
O_top7 I
O_top8 I
O_top9 I
S1END[0] I
S1END[1] I
S1END[2] I
S1END[3] I
S2END[0] I
S2END[1] I
S2END[2] I
S2END[3] I
S2END[4] I
S2END[5] I