* NGSPICE file created from S_CPU_IRQ.ext - technology: sky130A

* Black-box entry subcircuit for sky130_fd_sc_hd__fill_2 abstract view
.subckt sky130_fd_sc_hd__fill_2 VGND VNB VPB VPWR
.ends

* Black-box entry subcircuit for sky130_ef_sc_hd__decap_12 abstract view
.subckt sky130_ef_sc_hd__decap_12 VPWR VGND VPB VNB
.ends

* Black-box entry subcircuit for sky130_fd_sc_hd__decap_4 abstract view
.subckt sky130_fd_sc_hd__decap_4 VGND VNB VPB VPWR
.ends

* Black-box entry subcircuit for sky130_fd_sc_hd__fill_1 abstract view
.subckt sky130_fd_sc_hd__fill_1 VGND VNB VPB VPWR
.ends

* Black-box entry subcircuit for sky130_fd_sc_hd__tapvpwrvgnd_1 abstract view
.subckt sky130_fd_sc_hd__tapvpwrvgnd_1 VGND VPWR
.ends

* Black-box entry subcircuit for sky130_fd_sc_hd__decap_3 abstract view
.subckt sky130_fd_sc_hd__decap_3 VGND VNB VPB VPWR
.ends

* Black-box entry subcircuit for sky130_fd_sc_hd__clkbuf_1 abstract view
.subckt sky130_fd_sc_hd__clkbuf_1 A VGND VNB VPB VPWR X
.ends

* Black-box entry subcircuit for sky130_fd_sc_hd__dlxtp_1 abstract view
.subckt sky130_fd_sc_hd__dlxtp_1 D GATE VGND VNB VPB VPWR Q
.ends

* Black-box entry subcircuit for sky130_fd_sc_hd__o21a_1 abstract view
.subckt sky130_fd_sc_hd__o21a_1 A1 A2 B1 VGND VNB VPB VPWR X
.ends

* Black-box entry subcircuit for sky130_fd_sc_hd__diode_2 abstract view
.subckt sky130_fd_sc_hd__diode_2 DIODE VGND VNB VPB VPWR
.ends

* Black-box entry subcircuit for sky130_fd_sc_hd__mux4_1 abstract view
.subckt sky130_fd_sc_hd__mux4_1 A0 A1 A2 A3 S0 S1 VGND VNB VPB VPWR X
.ends

* Black-box entry subcircuit for sky130_fd_sc_hd__buf_2 abstract view
.subckt sky130_fd_sc_hd__buf_2 A VGND VNB VPB VPWR X
.ends

* Black-box entry subcircuit for sky130_fd_sc_hd__decap_6 abstract view
.subckt sky130_fd_sc_hd__decap_6 VGND VNB VPB VPWR
.ends

* Black-box entry subcircuit for sky130_fd_sc_hd__buf_1 abstract view
.subckt sky130_fd_sc_hd__buf_1 A VGND VNB VPB VPWR X
.ends

* Black-box entry subcircuit for sky130_fd_sc_hd__decap_8 abstract view
.subckt sky130_fd_sc_hd__decap_8 VGND VNB VPB VPWR
.ends

* Black-box entry subcircuit for sky130_fd_sc_hd__a221o_1 abstract view
.subckt sky130_fd_sc_hd__a221o_1 A1 A2 B1 B2 C1 VGND VNB VPB VPWR X
.ends

* Black-box entry subcircuit for sky130_fd_sc_hd__inv_2 abstract view
.subckt sky130_fd_sc_hd__inv_2 A VGND VNB VPB VPWR Y
.ends

* Black-box entry subcircuit for sky130_fd_sc_hd__mux2_1 abstract view
.subckt sky130_fd_sc_hd__mux2_1 A0 A1 S VGND VNB VPB VPWR X
.ends

* Black-box entry subcircuit for sky130_fd_sc_hd__o21ba_1 abstract view
.subckt sky130_fd_sc_hd__o21ba_1 A1 A2 B1_N VGND VNB VPB VPWR X
.ends

* Black-box entry subcircuit for sky130_fd_sc_hd__nand2b_1 abstract view
.subckt sky130_fd_sc_hd__nand2b_1 A_N B VGND VNB VPB VPWR Y
.ends

* Black-box entry subcircuit for sky130_fd_sc_hd__clkbuf_2 abstract view
.subckt sky130_fd_sc_hd__clkbuf_2 A VGND VNB VPB VPWR X
.ends

* Black-box entry subcircuit for sky130_fd_sc_hd__conb_1 abstract view
.subckt sky130_fd_sc_hd__conb_1 VGND VNB VPB VPWR HI LO
.ends

* Black-box entry subcircuit for sky130_fd_sc_hd__dlymetal6s2s_1 abstract view
.subckt sky130_fd_sc_hd__dlymetal6s2s_1 A VGND VNB VPB VPWR X
.ends

.subckt S_CPU_IRQ Co FrameData[0] FrameData[10] FrameData[11] FrameData[12] FrameData[13]
+ FrameData[14] FrameData[15] FrameData[16] FrameData[17] FrameData[18] FrameData[19]
+ FrameData[1] FrameData[20] FrameData[21] FrameData[22] FrameData[23] FrameData[24]
+ FrameData[25] FrameData[26] FrameData[27] FrameData[28] FrameData[29] FrameData[2]
+ FrameData[30] FrameData[31] FrameData[3] FrameData[4] FrameData[5] FrameData[6]
+ FrameData[7] FrameData[8] FrameData[9] FrameData_O[0] FrameData_O[10] FrameData_O[11]
+ FrameData_O[12] FrameData_O[13] FrameData_O[14] FrameData_O[15] FrameData_O[16]
+ FrameData_O[17] FrameData_O[18] FrameData_O[19] FrameData_O[1] FrameData_O[20] FrameData_O[21]
+ FrameData_O[22] FrameData_O[23] FrameData_O[24] FrameData_O[25] FrameData_O[26]
+ FrameData_O[27] FrameData_O[28] FrameData_O[29] FrameData_O[2] FrameData_O[30] FrameData_O[31]
+ FrameData_O[3] FrameData_O[4] FrameData_O[5] FrameData_O[6] FrameData_O[7] FrameData_O[8]
+ FrameData_O[9] FrameStrobe[0] FrameStrobe[10] FrameStrobe[11] FrameStrobe[12] FrameStrobe[13]
+ FrameStrobe[14] FrameStrobe[15] FrameStrobe[16] FrameStrobe[17] FrameStrobe[18]
+ FrameStrobe[19] FrameStrobe[1] FrameStrobe[2] FrameStrobe[3] FrameStrobe[4] FrameStrobe[5]
+ FrameStrobe[6] FrameStrobe[7] FrameStrobe[8] FrameStrobe[9] FrameStrobe_O[0] FrameStrobe_O[10]
+ FrameStrobe_O[11] FrameStrobe_O[12] FrameStrobe_O[13] FrameStrobe_O[14] FrameStrobe_O[15]
+ FrameStrobe_O[16] FrameStrobe_O[17] FrameStrobe_O[18] FrameStrobe_O[19] FrameStrobe_O[1]
+ FrameStrobe_O[2] FrameStrobe_O[3] FrameStrobe_O[4] FrameStrobe_O[5] FrameStrobe_O[6]
+ FrameStrobe_O[7] FrameStrobe_O[8] FrameStrobe_O[9] IRQ_top0 IRQ_top1 IRQ_top2 IRQ_top3
+ N1BEG[0] N1BEG[1] N1BEG[2] N1BEG[3] N2BEG[0] N2BEG[1] N2BEG[2] N2BEG[3] N2BEG[4]
+ N2BEG[5] N2BEG[6] N2BEG[7] N2BEGb[0] N2BEGb[1] N2BEGb[2] N2BEGb[3] N2BEGb[4] N2BEGb[5]
+ N2BEGb[6] N2BEGb[7] N4BEG[0] N4BEG[10] N4BEG[11] N4BEG[12] N4BEG[13] N4BEG[14] N4BEG[15]
+ N4BEG[1] N4BEG[2] N4BEG[3] N4BEG[4] N4BEG[5] N4BEG[6] N4BEG[7] N4BEG[8] N4BEG[9]
+ NN4BEG[0] NN4BEG[10] NN4BEG[11] NN4BEG[12] NN4BEG[13] NN4BEG[14] NN4BEG[15] NN4BEG[1]
+ NN4BEG[2] NN4BEG[3] NN4BEG[4] NN4BEG[5] NN4BEG[6] NN4BEG[7] NN4BEG[8] NN4BEG[9]
+ S1END[0] S1END[1] S1END[2] S1END[3] S2END[0] S2END[1] S2END[2] S2END[3] S2END[4]
+ S2END[5] S2END[6] S2END[7] S2MID[0] S2MID[1] S2MID[2] S2MID[3] S2MID[4] S2MID[5]
+ S2MID[6] S2MID[7] S4END[0] S4END[10] S4END[11] S4END[12] S4END[13] S4END[14] S4END[15]
+ S4END[1] S4END[2] S4END[3] S4END[4] S4END[5] S4END[6] S4END[7] S4END[8] S4END[9]
+ SS4END[0] SS4END[10] SS4END[11] SS4END[12] SS4END[13] SS4END[14] SS4END[15] SS4END[1]
+ SS4END[2] SS4END[3] SS4END[4] SS4END[5] SS4END[6] SS4END[7] SS4END[8] SS4END[9]
+ UserCLK UserCLKo VGND VPWR
XFILLER_10_306 VGND VGND VPWR VPWR sky130_fd_sc_hd__fill_2
XFILLER_5_398 VGND VGND VPWR VPWR sky130_fd_sc_hd__fill_2
XFILLER_5_376 VPWR VGND VPWR VGND sky130_ef_sc_hd__decap_12
XFILLER_8_192 VGND VGND VPWR VPWR sky130_fd_sc_hd__decap_4
XFILLER_10_125 VGND VGND VPWR VPWR sky130_fd_sc_hd__fill_1
XTAP_TAPCELL_ROW_8_88 VGND VPWR sky130_fd_sc_hd__tapvpwrvgnd_1
XPHY_EDGE_ROW_0_Left_12 VGND VGND VPWR VPWR sky130_fd_sc_hd__decap_3
XTAP_TAPCELL_ROW_11_120 VGND VPWR sky130_fd_sc_hd__tapvpwrvgnd_1
XFILLER_5_151 VGND VGND VPWR VPWR sky130_fd_sc_hd__decap_3
X_131_ net24 VGND VGND VPWR VPWR net117 sky130_fd_sc_hd__clkbuf_1
X_062_ net12 net14 VGND VGND VPWR VPWR Inst_S_CPU_IRQ_ConfigMem.Inst_frame0_bit30.Q
+ sky130_fd_sc_hd__dlxtp_1
XFILLER_0_57 VGND VGND VPWR VPWR sky130_fd_sc_hd__fill_1
X_045_ _002_ _014_ _018_ VGND VGND VPWR VPWR net100 sky130_fd_sc_hd__o21a_1
X_114_ FrameStrobe[17] VGND VGND VPWR VPWR net87 sky130_fd_sc_hd__clkbuf_1
XTAP_TAPCELL_ROW_5_67 VGND VPWR sky130_fd_sc_hd__tapvpwrvgnd_1
XFILLER_4_227 VPWR VGND VPWR VGND sky130_ef_sc_hd__decap_12
XANTENNA_5 FrameData[19] VGND VGND VPWR VPWR sky130_fd_sc_hd__diode_2
XFILLER_6_56 VGND VGND VPWR VPWR sky130_fd_sc_hd__decap_3
XFILLER_6_23 VGND VGND VPWR VPWR sky130_fd_sc_hd__decap_4
X_028_ net34 net38 net42 net46 Inst_S_CPU_IRQ_ConfigMem.Inst_frame0_bit29.Q Inst_S_CPU_IRQ_ConfigMem.Inst_frame0_bit30.Q
+ VGND VGND VPWR VPWR _004_ sky130_fd_sc_hd__mux4_1
XFILLER_3_293 VPWR VGND VPWR VGND sky130_ef_sc_hd__decap_12
Xoutput86 net87 VGND VGND VPWR VPWR FrameStrobe_O[17] sky130_fd_sc_hd__buf_2
Xoutput97 net98 VGND VGND VPWR VPWR FrameStrobe_O[9] sky130_fd_sc_hd__buf_2
Xoutput64 net65 VGND VGND VPWR VPWR FrameData_O[26] sky130_fd_sc_hd__buf_2
Xoutput53 net54 VGND VGND VPWR VPWR FrameData_O[16] sky130_fd_sc_hd__buf_2
Xoutput75 net76 VGND VGND VPWR VPWR FrameData_O[7] sky130_fd_sc_hd__buf_2
XTAP_TAPCELL_ROW_2_46 VGND VPWR sky130_fd_sc_hd__tapvpwrvgnd_1
XFILLER_9_105 VGND VGND VPWR VPWR sky130_fd_sc_hd__decap_6
XFILLER_5_388 VGND VGND VPWR VPWR sky130_fd_sc_hd__decap_4
XFILLER_5_333 VGND VGND VPWR VPWR sky130_fd_sc_hd__decap_3
XFILLER_10_148 VGND VGND VPWR VPWR sky130_fd_sc_hd__fill_2
XFILLER_10_115 VGND VGND VPWR VPWR sky130_fd_sc_hd__fill_2
XTAP_TAPCELL_ROW_11_121 VGND VPWR sky130_fd_sc_hd__tapvpwrvgnd_1
XTAP_TAPCELL_ROW_11_110 VGND VPWR sky130_fd_sc_hd__tapvpwrvgnd_1
XTAP_TAPCELL_ROW_8_89 VGND VPWR sky130_fd_sc_hd__tapvpwrvgnd_1
XFILLER_1_391 VGND VGND VPWR VPWR sky130_fd_sc_hd__fill_1
XFILLER_5_174 VGND VGND VPWR VPWR sky130_fd_sc_hd__decap_4
X_130_ net25 VGND VGND VPWR VPWR net116 sky130_fd_sc_hd__buf_1
XFILLER_9_12 VGND VGND VPWR VPWR sky130_fd_sc_hd__decap_6
X_061_ net11 net3 VGND VGND VPWR VPWR Inst_S_CPU_IRQ_ConfigMem.Inst_frame0_bit29.Q
+ sky130_fd_sc_hd__dlxtp_1
XFILLER_2_144 VGND VGND VPWR VPWR sky130_fd_sc_hd__decap_8
XFILLER_4_409 VGND VGND VPWR VPWR sky130_fd_sc_hd__fill_1
X_044_ _015_ _016_ _017_ Inst_S_CPU_IRQ_ConfigMem.Inst_frame0_bit24.Q Inst_S_CPU_IRQ_ConfigMem.Inst_frame0_bit25.Q
+ VGND VGND VPWR VPWR _018_ sky130_fd_sc_hd__a221o_1
X_113_ FrameStrobe[16] VGND VGND VPWR VPWR net86 sky130_fd_sc_hd__clkbuf_1
XTAP_TAPCELL_ROW_5_68 VGND VPWR sky130_fd_sc_hd__tapvpwrvgnd_1
XFILLER_4_239 VPWR VGND VPWR VGND sky130_ef_sc_hd__decap_12
XFILLER_6_68 VGND VGND VPWR VPWR sky130_fd_sc_hd__fill_1
X_027_ Inst_S_CPU_IRQ_ConfigMem.Inst_frame0_bit22.Q VGND VGND VPWR VPWR _003_ sky130_fd_sc_hd__inv_2
XANTENNA_6 FrameData[2] VGND VGND VPWR VPWR sky130_fd_sc_hd__diode_2
XPHY_EDGE_ROW_6_Right_6 VGND VGND VPWR VPWR sky130_fd_sc_hd__decap_3
Xoutput87 net88 VGND VGND VPWR VPWR FrameStrobe_O[18] sky130_fd_sc_hd__buf_2
Xoutput65 net66 VGND VGND VPWR VPWR FrameData_O[27] sky130_fd_sc_hd__buf_2
Xoutput54 net55 VGND VGND VPWR VPWR FrameData_O[17] sky130_fd_sc_hd__buf_2
XFILLER_0_253 VPWR VGND VPWR VGND sky130_ef_sc_hd__decap_12
Xoutput98 net99 VGND VGND VPWR VPWR IRQ_top0 sky130_fd_sc_hd__buf_2
Xoutput76 net77 VGND VGND VPWR VPWR FrameData_O[8] sky130_fd_sc_hd__buf_2
XTAP_TAPCELL_ROW_2_47 VGND VPWR sky130_fd_sc_hd__tapvpwrvgnd_1
XFILLER_8_397 VGND VGND VPWR VPWR sky130_fd_sc_hd__fill_1
XFILLER_2_326 VGND VGND VPWR VPWR sky130_fd_sc_hd__fill_1
XTAP_TAPCELL_ROW_11_111 VGND VPWR sky130_fd_sc_hd__tapvpwrvgnd_1
X_060_ net10 net3 VGND VGND VPWR VPWR Inst_S_CPU_IRQ_ConfigMem.Inst_frame0_bit28.Q
+ sky130_fd_sc_hd__dlxtp_1
XFILLER_3_3 VGND VGND VPWR VPWR sky130_fd_sc_hd__decap_8
XFILLER_9_57 VPWR VGND VPWR VGND sky130_ef_sc_hd__decap_12
XFILLER_11_222 VGND VGND VPWR VPWR sky130_fd_sc_hd__fill_2
X_112_ FrameStrobe[15] VGND VGND VPWR VPWR net85 sky130_fd_sc_hd__clkbuf_1
X_043_ net20 net24 Inst_S_CPU_IRQ_ConfigMem.Inst_frame0_bit23.Q VGND VGND VPWR VPWR
+ _017_ sky130_fd_sc_hd__mux2_1
XTAP_TAPCELL_ROW_5_69 VGND VPWR sky130_fd_sc_hd__tapvpwrvgnd_1
X_026_ Inst_S_CPU_IRQ_ConfigMem.Inst_frame0_bit25.Q VGND VGND VPWR VPWR _002_ sky130_fd_sc_hd__inv_2
XANTENNA_7 FrameData[3] VGND VGND VPWR VPWR sky130_fd_sc_hd__diode_2
Xoutput88 net89 VGND VGND VPWR VPWR FrameStrobe_O[19] sky130_fd_sc_hd__buf_2
Xoutput55 net56 VGND VGND VPWR VPWR FrameData_O[18] sky130_fd_sc_hd__buf_2
Xoutput66 net67 VGND VGND VPWR VPWR FrameData_O[28] sky130_fd_sc_hd__buf_2
XFILLER_0_265 VPWR VGND VPWR VGND sky130_ef_sc_hd__decap_12
XFILLER_0_221 VGND VGND VPWR VPWR sky130_fd_sc_hd__decap_3
Xoutput99 net100 VGND VGND VPWR VPWR IRQ_top1 sky130_fd_sc_hd__buf_2
XTAP_TAPCELL_ROW_2_48 VGND VPWR sky130_fd_sc_hd__tapvpwrvgnd_1
Xoutput77 net78 VGND VGND VPWR VPWR FrameData_O[9] sky130_fd_sc_hd__buf_2
XFILLER_8_365 VPWR VGND VPWR VGND sky130_ef_sc_hd__decap_12
XFILLER_10_139 VGND VGND VPWR VPWR sky130_fd_sc_hd__fill_1
XFILLER_10_106 VGND VGND VPWR VPWR sky130_fd_sc_hd__decap_4
XTAP_TAPCELL_ROW_11_112 VGND VPWR sky130_fd_sc_hd__tapvpwrvgnd_1
XFILLER_5_143 VGND VGND VPWR VPWR sky130_fd_sc_hd__decap_8
XFILLER_5_165 VGND VGND VPWR VPWR sky130_fd_sc_hd__decap_3
XFILLER_1_393 VPWR VGND VPWR VGND sky130_ef_sc_hd__decap_12
XFILLER_2_102 VGND VGND VPWR VPWR sky130_fd_sc_hd__fill_2
XPHY_EDGE_ROW_4_Left_16 VGND VGND VPWR VPWR sky130_fd_sc_hd__decap_3
XFILLER_9_69 VPWR VGND VPWR VGND sky130_ef_sc_hd__decap_12
XFILLER_11_289 VGND VGND VPWR VPWR sky130_fd_sc_hd__fill_2
X_111_ FrameStrobe[14] VGND VGND VPWR VPWR net84 sky130_fd_sc_hd__clkbuf_1
X_042_ net16 Inst_S_CPU_IRQ_ConfigMem.Inst_frame0_bit23.Q Inst_S_CPU_IRQ_ConfigMem.Inst_frame0_bit24.Q
+ VGND VGND VPWR VPWR _016_ sky130_fd_sc_hd__o21ba_1
XFILLER_6_271 VPWR VGND VPWR VGND sky130_ef_sc_hd__decap_12
XFILLER_1_81 VPWR VGND VPWR VGND sky130_ef_sc_hd__decap_12
XANTENNA_8 net63 VGND VGND VPWR VPWR sky130_fd_sc_hd__diode_2
XFILLER_6_15 VGND VGND VPWR VPWR sky130_fd_sc_hd__decap_4
X_025_ Inst_S_CPU_IRQ_ConfigMem.Inst_frame0_bit28.Q VGND VGND VPWR VPWR _001_ sky130_fd_sc_hd__inv_2
Xoutput89 net90 VGND VGND VPWR VPWR FrameStrobe_O[1] sky130_fd_sc_hd__buf_2
Xoutput78 net79 VGND VGND VPWR VPWR FrameStrobe_O[0] sky130_fd_sc_hd__buf_2
Xoutput67 net68 VGND VGND VPWR VPWR FrameData_O[29] sky130_fd_sc_hd__buf_2
Xoutput56 net57 VGND VGND VPWR VPWR FrameData_O[19] sky130_fd_sc_hd__buf_2
XFILLER_0_277 VGND VGND VPWR VPWR sky130_fd_sc_hd__decap_3
XTAP_TAPCELL_ROW_2_49 VGND VPWR sky130_fd_sc_hd__tapvpwrvgnd_1
XFILLER_8_377 VPWR VGND VPWR VGND sky130_ef_sc_hd__decap_12
XFILLER_7_91 VGND VGND VPWR VPWR sky130_fd_sc_hd__decap_3
XTAP_TAPCELL_ROW_11_113 VGND VPWR sky130_fd_sc_hd__tapvpwrvgnd_1
XFILLER_2_317 VGND VGND VPWR VPWR sky130_fd_sc_hd__fill_2
XFILLER_5_111 VGND VGND VPWR VPWR sky130_fd_sc_hd__fill_1
XFILLER_1_361 VPWR VGND VPWR VGND sky130_ef_sc_hd__decap_12
XFILLER_5_199 VGND VGND VPWR VPWR sky130_fd_sc_hd__fill_1
XFILLER_7_409 VGND VGND VPWR VPWR sky130_fd_sc_hd__fill_1
XFILLER_2_125 VPWR VGND VPWR VGND sky130_ef_sc_hd__decap_12
XFILLER_2_158 VGND VGND VPWR VPWR sky130_fd_sc_hd__decap_3
XFILLER_9_26 VGND VGND VPWR VPWR sky130_fd_sc_hd__fill_2
XFILLER_11_279 VGND VGND VPWR VPWR sky130_fd_sc_hd__fill_1
X_110_ FrameStrobe[13] VGND VGND VPWR VPWR net83 sky130_fd_sc_hd__clkbuf_1
X_041_ net28 Inst_S_CPU_IRQ_ConfigMem.Inst_frame0_bit23.Q VGND VGND VPWR VPWR _015_
+ sky130_fd_sc_hd__nand2b_1
XFILLER_6_283 VPWR VGND VPWR VGND sky130_ef_sc_hd__decap_12
XFILLER_1_93 VPWR VGND VPWR VGND sky130_ef_sc_hd__decap_12
XFILLER_4_209 VPWR VGND VPWR VGND sky130_ef_sc_hd__decap_12
XFILLER_6_27 VGND VGND VPWR VPWR sky130_fd_sc_hd__fill_1
X_024_ Inst_S_CPU_IRQ_ConfigMem.Inst_frame0_bit31.Q VGND VGND VPWR VPWR _000_ sky130_fd_sc_hd__inv_2
XANTENNA_9 FrameStrobe[1] VGND VGND VPWR VPWR sky130_fd_sc_hd__diode_2
Xoutput57 net58 VGND VGND VPWR VPWR FrameData_O[1] sky130_fd_sc_hd__buf_2
Xoutput46 net47 VGND VGND VPWR VPWR FrameData_O[0] sky130_fd_sc_hd__buf_2
Xoutput79 net80 VGND VGND VPWR VPWR FrameStrobe_O[10] sky130_fd_sc_hd__buf_2
XFILLER_8_389 VGND VGND VPWR VPWR sky130_fd_sc_hd__decap_8
Xoutput68 net69 VGND VGND VPWR VPWR FrameData_O[2] sky130_fd_sc_hd__buf_2
XFILLER_8_197 VGND VGND VPWR VPWR sky130_fd_sc_hd__decap_8
XFILLER_8_153 VGND VGND VPWR VPWR sky130_fd_sc_hd__decap_3
XFILLER_8_131 VGND VGND VPWR VPWR sky130_fd_sc_hd__decap_6
XTAP_TAPCELL_ROW_11_114 VGND VPWR sky130_fd_sc_hd__tapvpwrvgnd_1
XFILLER_1_373 VPWR VGND VPWR VGND sky130_ef_sc_hd__decap_12
XFILLER_0_29 VPWR VGND VPWR VGND sky130_ef_sc_hd__decap_12
XFILLER_2_137 VGND VGND VPWR VPWR sky130_fd_sc_hd__decap_3
XFILLER_9_281 VPWR VGND VPWR VGND sky130_ef_sc_hd__decap_12
XFILLER_1_181 VPWR VGND VPWR VGND sky130_ef_sc_hd__decap_12
XFILLER_1_3 VPWR VGND VPWR VGND sky130_ef_sc_hd__decap_12
X_040_ net32 net36 net40 net44 Inst_S_CPU_IRQ_ConfigMem.Inst_frame0_bit23.Q Inst_S_CPU_IRQ_ConfigMem.Inst_frame0_bit24.Q
+ VGND VGND VPWR VPWR _014_ sky130_fd_sc_hd__mux4_1
XFILLER_6_295 VPWR VGND VPWR VGND sky130_ef_sc_hd__decap_12
X_169_ UserCLK VGND VGND VPWR VPWR net155 sky130_fd_sc_hd__buf_2
XFILLER_10_70 VGND VGND VPWR VPWR sky130_fd_sc_hd__decap_8
Xoutput58 net59 VGND VGND VPWR VPWR FrameData_O[20] sky130_fd_sc_hd__buf_2
Xoutput69 net70 VGND VGND VPWR VPWR FrameData_O[30] sky130_fd_sc_hd__buf_2
XFILLER_8_346 VPWR VGND VPWR VGND sky130_ef_sc_hd__decap_12
Xoutput47 net48 VGND VGND VPWR VPWR FrameData_O[10] sky130_fd_sc_hd__buf_2
XFILLER_7_71 VPWR VGND VPWR VGND sky130_ef_sc_hd__decap_12
XFILLER_5_305 VPWR VGND VPWR VGND sky130_ef_sc_hd__decap_12
XFILLER_8_110 VGND VGND VPWR VPWR sky130_fd_sc_hd__decap_6
XTAP_TAPCELL_ROW_11_115 VGND VPWR sky130_fd_sc_hd__tapvpwrvgnd_1
XFILLER_1_385 VGND VGND VPWR VPWR sky130_fd_sc_hd__decap_6
XFILLER_5_113 VPWR VGND VPWR VGND sky130_ef_sc_hd__decap_12
XFILLER_5_157 VGND VGND VPWR VPWR sky130_fd_sc_hd__decap_8
XFILLER_4_83 VGND VGND VPWR VPWR sky130_fd_sc_hd__fill_1
XFILLER_9_293 VPWR VGND VPWR VGND sky130_ef_sc_hd__decap_12
XFILLER_1_193 VPWR VGND VPWR VGND sky130_ef_sc_hd__decap_12
X_168_ net39 VGND VGND VPWR VPWR net145 sky130_fd_sc_hd__clkbuf_1
X_099_ FrameStrobe[2] VGND VGND VPWR VPWR net91 sky130_fd_sc_hd__clkbuf_1
XFILLER_1_51 VGND VGND VPWR VPWR sky130_fd_sc_hd__decap_4
XFILLER_10_82 VGND VGND VPWR VPWR sky130_fd_sc_hd__fill_2
XFILLER_3_211 VPWR VGND VPWR VGND sky130_ef_sc_hd__decap_12
XFILLER_3_255 VPWR VGND VPWR VGND sky130_ef_sc_hd__decap_12
Xoutput59 net60 VGND VGND VPWR VPWR FrameData_O[21] sky130_fd_sc_hd__buf_2
XFILLER_0_225 VPWR VGND VPWR VGND sky130_ef_sc_hd__decap_12
XPHY_EDGE_ROW_1_Right_1 VGND VGND VPWR VPWR sky130_fd_sc_hd__decap_3
Xoutput48 net49 VGND VGND VPWR VPWR FrameData_O[11] sky130_fd_sc_hd__buf_2
XFILLER_8_358 VGND VGND VPWR VPWR sky130_fd_sc_hd__decap_6
XFILLER_7_391 VGND VGND VPWR VPWR sky130_fd_sc_hd__fill_1
XFILLER_7_83 VGND VGND VPWR VPWR sky130_fd_sc_hd__decap_8
XFILLER_5_317 VPWR VGND VPWR VGND sky130_ef_sc_hd__decap_12
XFILLER_4_361 VGND VGND VPWR VPWR sky130_fd_sc_hd__decap_3
XFILLER_2_309 VGND VGND VPWR VPWR sky130_fd_sc_hd__decap_4
XTAP_TAPCELL_ROW_11_116 VGND VPWR sky130_fd_sc_hd__tapvpwrvgnd_1
XFILLER_5_125 VPWR VGND VPWR VGND sky130_ef_sc_hd__decap_12
XFILLER_5_169 VGND VGND VPWR VPWR sky130_fd_sc_hd__fill_2
XTAP_TAPCELL_ROW_9_94 VGND VPWR sky130_fd_sc_hd__tapvpwrvgnd_1
XTAP_TAPCELL_ROW_0_30 VGND VPWR sky130_fd_sc_hd__tapvpwrvgnd_1
XFILLER_1_161 VGND VGND VPWR VPWR sky130_fd_sc_hd__decap_6
X_167_ net40 VGND VGND VPWR VPWR net144 sky130_fd_sc_hd__buf_1
X_098_ FrameStrobe[1] VGND VGND VPWR VPWR net90 sky130_fd_sc_hd__clkbuf_1
XFILLER_10_94 VGND VGND VPWR VPWR sky130_fd_sc_hd__decap_8
XFILLER_3_223 VGND VGND VPWR VPWR sky130_fd_sc_hd__fill_1
XFILLER_3_245 VGND VGND VPWR VPWR sky130_fd_sc_hd__fill_2
XFILLER_3_267 VPWR VGND VPWR VGND sky130_ef_sc_hd__decap_12
XPHY_EDGE_ROW_11_Left_23 VGND VGND VPWR VPWR sky130_fd_sc_hd__decap_3
XTAP_TAPCELL_ROW_6_73 VGND VPWR sky130_fd_sc_hd__tapvpwrvgnd_1
XFILLER_0_237 VPWR VGND VPWR VGND sky130_ef_sc_hd__decap_12
Xoutput49 net50 VGND VGND VPWR VPWR FrameData_O[12] sky130_fd_sc_hd__buf_2
XFILLER_8_315 VPWR VGND VPWR VGND sky130_ef_sc_hd__decap_12
XFILLER_7_51 VGND VGND VPWR VPWR sky130_fd_sc_hd__decap_4
XFILLER_5_329 VGND VGND VPWR VPWR sky130_fd_sc_hd__fill_1
XTAP_TAPCELL_ROW_3_52 VGND VPWR sky130_fd_sc_hd__tapvpwrvgnd_1
XTAP_TAPCELL_ROW_11_117 VGND VPWR sky130_fd_sc_hd__tapvpwrvgnd_1
XFILLER_5_137 VGND VGND VPWR VPWR sky130_fd_sc_hd__decap_3
XFILLER_4_41 VPWR VGND VPWR VGND sky130_ef_sc_hd__decap_12
XFILLER_4_85 VPWR VGND VPWR VGND sky130_ef_sc_hd__decap_12
XFILLER_11_409 VGND VGND VPWR VPWR sky130_fd_sc_hd__decap_3
XTAP_TAPCELL_ROW_9_95 VGND VPWR sky130_fd_sc_hd__tapvpwrvgnd_1
XTAP_TAPCELL_ROW_0_31 VGND VPWR sky130_fd_sc_hd__tapvpwrvgnd_1
XFILLER_9_251 VPWR VGND VPWR VGND sky130_ef_sc_hd__decap_12
XFILLER_3_405 VGND VGND VPWR VPWR sky130_fd_sc_hd__decap_4
X_097_ net14 VGND VGND VPWR VPWR net79 sky130_fd_sc_hd__buf_1
X_166_ net41 VGND VGND VPWR VPWR net143 sky130_fd_sc_hd__clkbuf_1
XFILLER_3_202 VGND VGND VPWR VPWR sky130_fd_sc_hd__decap_6
X_149_ net34 VGND VGND VPWR VPWR net126 sky130_fd_sc_hd__buf_1
XTAP_TAPCELL_ROW_6_74 VGND VPWR sky130_fd_sc_hd__tapvpwrvgnd_1
XFILLER_3_279 VGND VGND VPWR VPWR sky130_fd_sc_hd__fill_1
XFILLER_0_249 VGND VGND VPWR VPWR sky130_fd_sc_hd__decap_3
XFILLER_8_327 VGND VGND VPWR VPWR sky130_fd_sc_hd__decap_6
XFILLER_7_393 VGND VGND VPWR VPWR sky130_fd_sc_hd__decap_4
XFILLER_7_371 VPWR VGND VPWR VGND sky130_ef_sc_hd__decap_12
XTAP_TAPCELL_ROW_3_53 VGND VPWR sky130_fd_sc_hd__tapvpwrvgnd_1
XTAP_TAPCELL_ROW_11_118 VGND VPWR sky130_fd_sc_hd__tapvpwrvgnd_1
XFILLER_5_105 VGND VGND VPWR VPWR sky130_fd_sc_hd__decap_6
XFILLER_4_53 VPWR VGND VPWR VGND sky130_ef_sc_hd__decap_12
XFILLER_4_97 VGND VGND VPWR VPWR sky130_fd_sc_hd__decap_8
XFILLER_6_403 VGND VGND VPWR VPWR sky130_fd_sc_hd__decap_6
XTAP_TAPCELL_ROW_0_32 VGND VPWR sky130_fd_sc_hd__tapvpwrvgnd_1
XFILLER_9_263 VPWR VGND VPWR VGND sky130_ef_sc_hd__decap_12
XTAP_TAPCELL_ROW_9_96 VGND VPWR sky130_fd_sc_hd__tapvpwrvgnd_1
XFILLER_11_207 VPWR VGND VPWR VGND sky130_ef_sc_hd__decap_12
XFILLER_10_251 VGND VGND VPWR VPWR sky130_fd_sc_hd__fill_1
X_165_ net42 VGND VGND VPWR VPWR net142 sky130_fd_sc_hd__clkbuf_1
XFILLER_6_222 VPWR VGND VPWR VGND sky130_ef_sc_hd__decap_12
X_096_ net13 VGND VGND VPWR VPWR net71 sky130_fd_sc_hd__buf_1
XFILLER_10_41 VGND VGND VPWR VPWR sky130_fd_sc_hd__fill_1
X_148_ net35 VGND VGND VPWR VPWR net125 sky130_fd_sc_hd__clkbuf_1
XTAP_TAPCELL_ROW_6_75 VGND VPWR sky130_fd_sc_hd__tapvpwrvgnd_1
XFILLER_3_225 VPWR VGND VPWR VGND sky130_ef_sc_hd__decap_12
X_079_ FrameData[14] VGND VGND VPWR VPWR net52 sky130_fd_sc_hd__clkbuf_1
XFILLER_8_339 VGND VGND VPWR VPWR sky130_fd_sc_hd__fill_1
XFILLER_7_383 VGND VGND VPWR VPWR sky130_fd_sc_hd__decap_8
XFILLER_7_361 VGND VGND VPWR VPWR sky130_fd_sc_hd__decap_6
XPHY_EDGE_ROW_5_Right_5 VGND VGND VPWR VPWR sky130_fd_sc_hd__decap_3
XTAP_TAPCELL_ROW_3_54 VGND VPWR sky130_fd_sc_hd__tapvpwrvgnd_1
XFILLER_4_397 VGND VGND VPWR VPWR sky130_fd_sc_hd__decap_3
XTAP_TAPCELL_ROW_11_119 VGND VPWR sky130_fd_sc_hd__tapvpwrvgnd_1
XTAP_TAPCELL_ROW_11_108 VGND VPWR sky130_fd_sc_hd__tapvpwrvgnd_1
XFILLER_4_65 VPWR VGND VPWR VGND sky130_ef_sc_hd__decap_12
XFILLER_4_172 VPWR VGND VPWR VGND sky130_ef_sc_hd__decap_12
XTAP_TAPCELL_ROW_0_33 VGND VPWR sky130_fd_sc_hd__tapvpwrvgnd_1
XFILLER_9_275 VGND VGND VPWR VPWR sky130_fd_sc_hd__decap_4
XTAP_TAPCELL_ROW_9_97 VGND VPWR sky130_fd_sc_hd__tapvpwrvgnd_1
X_095_ net12 VGND VGND VPWR VPWR net70 sky130_fd_sc_hd__buf_1
XFILLER_6_234 VPWR VGND VPWR VGND sky130_ef_sc_hd__decap_12
XFILLER_6_212 VGND VGND VPWR VPWR sky130_fd_sc_hd__decap_4
XFILLER_1_55 VGND VGND VPWR VPWR sky130_fd_sc_hd__fill_1
X_164_ net43 VGND VGND VPWR VPWR net141 sky130_fd_sc_hd__clkbuf_1
XFILLER_10_64 VGND VGND VPWR VPWR sky130_fd_sc_hd__fill_2
XTAP_TAPCELL_ROW_6_76 VGND VPWR sky130_fd_sc_hd__tapvpwrvgnd_1
XFILLER_3_237 VGND VGND VPWR VPWR sky130_fd_sc_hd__decap_8
X_078_ FrameData[13] VGND VGND VPWR VPWR net51 sky130_fd_sc_hd__clkbuf_2
X_147_ net36 VGND VGND VPWR VPWR net124 sky130_fd_sc_hd__clkbuf_1
XFILLER_8_307 VGND VGND VPWR VPWR sky130_fd_sc_hd__fill_1
XFILLER_7_65 VGND VGND VPWR VPWR sky130_fd_sc_hd__decap_3
XPHY_EDGE_ROW_11_Right_11 VGND VGND VPWR VPWR sky130_fd_sc_hd__decap_3
XTAP_TAPCELL_ROW_3_55 VGND VPWR sky130_fd_sc_hd__tapvpwrvgnd_1
XFILLER_4_321 VGND VGND VPWR VPWR sky130_fd_sc_hd__decap_4
XFILLER_4_365 VPWR VGND VPWR VGND sky130_ef_sc_hd__decap_12
XTAP_TAPCELL_ROW_11_109 VGND VPWR sky130_fd_sc_hd__tapvpwrvgnd_1
XFILLER_1_335 VGND VGND VPWR VPWR sky130_fd_sc_hd__fill_1
XFILLER_4_77 VGND VGND VPWR VPWR sky130_fd_sc_hd__decap_6
XFILLER_4_184 VPWR VGND VPWR VGND sky130_ef_sc_hd__decap_12
XTAP_TAPCELL_ROW_9_98 VGND VPWR sky130_fd_sc_hd__tapvpwrvgnd_1
XTAP_TAPCELL_ROW_0_34 VGND VPWR sky130_fd_sc_hd__tapvpwrvgnd_1
XS_CPU_IRQ_155 VGND VGND VPWR VPWR S_CPU_IRQ_155/HI Co sky130_fd_sc_hd__conb_1
XPHY_EDGE_ROW_3_Left_15 VGND VGND VPWR VPWR sky130_fd_sc_hd__decap_3
XFILLER_10_297 VGND VGND VPWR VPWR sky130_fd_sc_hd__decap_3
XFILLER_10_253 VPWR VGND VPWR VGND sky130_ef_sc_hd__decap_12
XFILLER_6_246 VGND VGND VPWR VPWR sky130_fd_sc_hd__decap_3
X_163_ net44 VGND VGND VPWR VPWR net140 sky130_fd_sc_hd__buf_1
X_094_ net11 VGND VGND VPWR VPWR net68 sky130_fd_sc_hd__clkbuf_2
X_146_ net37 VGND VGND VPWR VPWR net138 sky130_fd_sc_hd__clkbuf_1
X_077_ FrameData[12] VGND VGND VPWR VPWR net50 sky130_fd_sc_hd__clkbuf_1
XTAP_TAPCELL_ROW_6_77 VGND VPWR sky130_fd_sc_hd__tapvpwrvgnd_1
XFILLER_2_271 VGND VGND VPWR VPWR sky130_fd_sc_hd__fill_1
XFILLER_7_55 VGND VGND VPWR VPWR sky130_fd_sc_hd__fill_1
X_129_ net26 VGND VGND VPWR VPWR net115 sky130_fd_sc_hd__buf_1
XTAP_TAPCELL_ROW_3_56 VGND VPWR sky130_fd_sc_hd__tapvpwrvgnd_1
XFILLER_4_377 VPWR VGND VPWR VGND sky130_ef_sc_hd__decap_12
XFILLER_4_23 VGND VGND VPWR VPWR sky130_fd_sc_hd__fill_2
XFILLER_4_130 VGND VGND VPWR VPWR sky130_fd_sc_hd__fill_1
XTAP_TAPCELL_ROW_9_99 VGND VPWR sky130_fd_sc_hd__tapvpwrvgnd_1
XFILLER_8_3 VPWR VGND VPWR VGND sky130_ef_sc_hd__decap_12
XFILLER_1_111 VGND VGND VPWR VPWR sky130_fd_sc_hd__fill_1
XTAP_TAPCELL_ROW_0_24 VGND VPWR sky130_fd_sc_hd__tapvpwrvgnd_1
XTAP_TAPCELL_ROW_0_35 VGND VPWR sky130_fd_sc_hd__tapvpwrvgnd_1
XFILLER_3_409 VGND VGND VPWR VPWR sky130_fd_sc_hd__fill_1
XFILLER_10_265 VPWR VGND VPWR VGND sky130_ef_sc_hd__decap_12
XFILLER_10_221 VPWR VGND VPWR VGND sky130_ef_sc_hd__decap_12
X_093_ net10 VGND VGND VPWR VPWR net67 sky130_fd_sc_hd__buf_1
X_162_ net45 VGND VGND VPWR VPWR net154 sky130_fd_sc_hd__clkbuf_1
XFILLER_1_57 VPWR VGND VPWR VGND sky130_ef_sc_hd__decap_12
Xinput1 FrameData[20] VGND VGND VPWR VPWR net1 sky130_fd_sc_hd__buf_1
XTAP_TAPCELL_ROW_6_78 VGND VPWR sky130_fd_sc_hd__tapvpwrvgnd_1
X_076_ FrameData[11] VGND VGND VPWR VPWR net49 sky130_fd_sc_hd__clkbuf_2
X_145_ net38 VGND VGND VPWR VPWR net137 sky130_fd_sc_hd__buf_1
XFILLER_0_209 VPWR VGND VPWR VGND sky130_ef_sc_hd__decap_12
XFILLER_7_397 VGND VGND VPWR VPWR sky130_fd_sc_hd__fill_1
X_059_ net9 net3 VGND VGND VPWR VPWR Inst_S_CPU_IRQ_ConfigMem.Inst_frame0_bit27.Q
+ sky130_fd_sc_hd__dlxtp_1
X_128_ net27 VGND VGND VPWR VPWR net114 sky130_fd_sc_hd__buf_1
XTAP_TAPCELL_ROW_3_57 VGND VPWR sky130_fd_sc_hd__tapvpwrvgnd_1
XFILLER_4_301 VGND VGND VPWR VPWR sky130_fd_sc_hd__decap_6
XPHY_EDGE_ROW_9_Right_9 VGND VGND VPWR VPWR sky130_fd_sc_hd__decap_3
XFILLER_4_389 VGND VGND VPWR VPWR sky130_fd_sc_hd__decap_8
XFILLER_1_337 VPWR VGND VPWR VGND sky130_ef_sc_hd__decap_12
XFILLER_4_197 VPWR VGND VPWR VGND sky130_ef_sc_hd__decap_12
XFILLER_10_403 VGND VGND VPWR VPWR sky130_fd_sc_hd__decap_3
XFILLER_1_167 VGND VGND VPWR VPWR sky130_fd_sc_hd__fill_1
XTAP_TAPCELL_ROW_0_25 VGND VPWR sky130_fd_sc_hd__tapvpwrvgnd_1
XTAP_TAPCELL_ROW_0_36 VGND VPWR sky130_fd_sc_hd__tapvpwrvgnd_1
XFILLER_9_223 VGND VGND VPWR VPWR sky130_fd_sc_hd__fill_1
XFILLER_10_277 VPWR VGND VPWR VGND sky130_ef_sc_hd__decap_12
XFILLER_10_233 VPWR VGND VPWR VGND sky130_ef_sc_hd__decap_12
X_161_ net46 VGND VGND VPWR VPWR net153 sky130_fd_sc_hd__clkbuf_1
XFILLER_6_259 VPWR VGND VPWR VGND sky130_ef_sc_hd__decap_12
XFILLER_1_69 VPWR VGND VPWR VGND sky130_ef_sc_hd__decap_12
X_092_ net9 VGND VGND VPWR VPWR net66 sky130_fd_sc_hd__buf_1
XFILLER_10_23 VGND VGND VPWR VPWR sky130_fd_sc_hd__fill_1
Xinput2 FrameData[21] VGND VGND VPWR VPWR net2 sky130_fd_sc_hd__buf_1
XFILLER_5_281 VPWR VGND VPWR VGND sky130_ef_sc_hd__decap_12
XFILLER_10_89 VGND VGND VPWR VPWR sky130_fd_sc_hd__fill_1
X_144_ S4END[8] VGND VGND VPWR VPWR net136 sky130_fd_sc_hd__buf_1
XTAP_TAPCELL_ROW_6_79 VGND VPWR sky130_fd_sc_hd__tapvpwrvgnd_1
X_075_ FrameData[10] VGND VGND VPWR VPWR net48 sky130_fd_sc_hd__clkbuf_2
XFILLER_2_90 VPWR VGND VPWR VGND sky130_ef_sc_hd__decap_12
X_058_ net8 net3 VGND VGND VPWR VPWR Inst_S_CPU_IRQ_ConfigMem.Inst_frame0_bit26.Q
+ sky130_fd_sc_hd__dlxtp_1
X_127_ net28 VGND VGND VPWR VPWR net113 sky130_fd_sc_hd__clkbuf_1
XFILLER_7_57 VGND VGND VPWR VPWR sky130_fd_sc_hd__decap_8
XTAP_TAPCELL_ROW_3_58 VGND VPWR sky130_fd_sc_hd__tapvpwrvgnd_1
XFILLER_7_184 VPWR VGND VPWR VGND sky130_ef_sc_hd__decap_12
XTAP_TAPCELL_ROW_10_101 VGND VPWR sky130_fd_sc_hd__tapvpwrvgnd_1
XFILLER_1_305 VPWR VGND VPWR VGND sky130_ef_sc_hd__decap_12
XFILLER_1_349 VPWR VGND VPWR VGND sky130_ef_sc_hd__decap_12
XFILLER_0_393 VGND VGND VPWR VPWR sky130_fd_sc_hd__fill_1
XFILLER_1_113 VPWR VGND VPWR VGND sky130_ef_sc_hd__decap_12
XTAP_TAPCELL_ROW_0_26 VGND VPWR sky130_fd_sc_hd__tapvpwrvgnd_1
XTAP_TAPCELL_ROW_0_37 VGND VPWR sky130_fd_sc_hd__tapvpwrvgnd_1
XFILLER_9_279 VGND VGND VPWR VPWR sky130_fd_sc_hd__fill_1
XFILLER_10_289 VGND VGND VPWR VPWR sky130_fd_sc_hd__decap_8
XFILLER_10_245 VGND VGND VPWR VPWR sky130_fd_sc_hd__decap_6
X_160_ SS4END[8] VGND VGND VPWR VPWR net152 sky130_fd_sc_hd__buf_1
XFILLER_6_216 VGND VGND VPWR VPWR sky130_fd_sc_hd__fill_1
XFILLER_1_15 VPWR VGND VPWR VGND sky130_ef_sc_hd__decap_12
X_091_ net8 VGND VGND VPWR VPWR net65 sky130_fd_sc_hd__buf_1
Xinput3 FrameData[22] VGND VGND VPWR VPWR net4 sky130_fd_sc_hd__buf_1
XPHY_EDGE_ROW_7_Left_19 VGND VGND VPWR VPWR sky130_fd_sc_hd__decap_3
XFILLER_5_293 VPWR VGND VPWR VGND sky130_ef_sc_hd__decap_12
XFILLER_10_46 VGND VGND VPWR VPWR sky130_fd_sc_hd__decap_8
X_143_ S4END[9] VGND VGND VPWR VPWR net135 sky130_fd_sc_hd__buf_1
X_074_ FrameData[9] VGND VGND VPWR VPWR net78 sky130_fd_sc_hd__clkbuf_2
XFILLER_11_362 VGND VGND VPWR VPWR sky130_fd_sc_hd__fill_2
X_057_ net7 net3 VGND VGND VPWR VPWR Inst_S_CPU_IRQ_ConfigMem.Inst_frame0_bit25.Q
+ sky130_fd_sc_hd__dlxtp_1
X_126_ net29 VGND VGND VPWR VPWR net112 sky130_fd_sc_hd__buf_1
XFILLER_8_119 VPWR VGND VPWR VGND sky130_ef_sc_hd__decap_12
XPHY_EDGE_ROW_0_Right_0 VGND VGND VPWR VPWR sky130_fd_sc_hd__decap_3
XFILLER_4_325 VGND VGND VPWR VPWR sky130_fd_sc_hd__fill_1
X_109_ FrameStrobe[12] VGND VGND VPWR VPWR net82 sky130_fd_sc_hd__clkbuf_1
XFILLER_7_130 VPWR VGND VPWR VGND sky130_ef_sc_hd__decap_12
XFILLER_3_391 VGND VGND VPWR VPWR sky130_fd_sc_hd__fill_1
XTAP_TAPCELL_ROW_10_102 VGND VPWR sky130_fd_sc_hd__tapvpwrvgnd_1
XFILLER_1_317 VPWR VGND VPWR VGND sky130_ef_sc_hd__decap_12
XFILLER_0_361 VGND VGND VPWR VPWR sky130_fd_sc_hd__decap_3
XFILLER_4_15 VGND VGND VPWR VPWR sky130_fd_sc_hd__decap_4
XFILLER_4_122 VGND VGND VPWR VPWR sky130_fd_sc_hd__decap_8
XFILLER_4_144 VPWR VGND VPWR VGND sky130_ef_sc_hd__decap_12
XFILLER_6_409 VGND VGND VPWR VPWR sky130_fd_sc_hd__fill_1
XTAP_TAPCELL_ROW_0_27 VGND VPWR sky130_fd_sc_hd__tapvpwrvgnd_1
XFILLER_1_125 VPWR VGND VPWR VGND sky130_ef_sc_hd__decap_12
XFILLER_1_169 VPWR VGND VPWR VGND sky130_ef_sc_hd__decap_12