*SPEF "ieee 1481-1999"
*DESIGN "S_EF_DAC8"
*DATE "08:53:37 Monday February 24, 2025"
*VENDOR "The OpenROAD Project"
*PROGRAM "OpenROAD"
*VERSION "87af90f72f3f9be1fdfa1d886f0dd8d8b8f34694"
*DESIGN_FLOW "NAME_SCOPE LOCAL" "PIN_CAP NONE"
*DIVIDER /
*DELIMITER :
*BUS_DELIMITER []
*T_UNIT 1 NS
*C_UNIT 1 PF
*R_UNIT 1 OHM
*L_UNIT 1 HENRY

*NAME_MAP
*1 net196
*2 FrameData[0]
*3 FrameData[10]
*4 FrameData[11]
*5 FrameData[12]
*6 FrameData[13]
*7 FrameData[14]
*8 FrameData[15]
*9 FrameData[16]
*10 FrameData[17]
*11 FrameData[18]
*12 FrameData[19]
*13 FrameData[1]
*14 FrameData[20]
*15 FrameData[21]
*16 FrameData[22]
*17 FrameData[23]
*18 FrameData[24]
*19 FrameData[25]
*20 FrameData[26]
*21 FrameData[27]
*22 FrameData[28]
*23 FrameData[29]
*24 FrameData[2]
*25 FrameData[30]
*26 FrameData[31]
*27 FrameData[3]
*28 FrameData[4]
*29 FrameData[5]
*30 FrameData[6]
*31 FrameData[7]
*32 FrameData[8]
*33 FrameData[9]
*34 FrameData_O[0]
*35 FrameData_O[10]
*36 FrameData_O[11]
*37 FrameData_O[12]
*38 FrameData_O[13]
*39 FrameData_O[14]
*40 FrameData_O[15]
*41 FrameData_O[16]
*42 FrameData_O[17]
*43 FrameData_O[18]
*44 FrameData_O[19]
*45 FrameData_O[1]
*46 FrameData_O[20]
*47 FrameData_O[21]
*48 FrameData_O[22]
*49 FrameData_O[23]
*50 FrameData_O[24]
*51 FrameData_O[25]
*52 FrameData_O[26]
*53 FrameData_O[27]
*54 FrameData_O[28]
*55 FrameData_O[29]
*56 FrameData_O[2]
*57 FrameData_O[30]
*58 FrameData_O[31]
*59 FrameData_O[3]
*60 FrameData_O[4]
*61 FrameData_O[5]
*62 FrameData_O[6]
*63 FrameData_O[7]
*64 FrameData_O[8]
*65 FrameData_O[9]
*66 FrameStrobe[0]
*67 FrameStrobe[10]
*68 FrameStrobe[11]
*69 FrameStrobe[12]
*70 FrameStrobe[13]
*71 FrameStrobe[14]
*72 FrameStrobe[15]
*73 FrameStrobe[16]
*74 FrameStrobe[17]
*75 FrameStrobe[18]
*76 FrameStrobe[19]
*77 FrameStrobe[1]
*78 FrameStrobe[2]
*79 FrameStrobe[3]
*80 FrameStrobe[4]
*81 FrameStrobe[5]
*82 FrameStrobe[6]
*83 FrameStrobe[7]
*84 FrameStrobe[8]
*85 FrameStrobe[9]
*86 FrameStrobe_O[0]
*87 FrameStrobe_O[10]
*88 FrameStrobe_O[11]
*89 FrameStrobe_O[12]
*90 FrameStrobe_O[13]
*91 FrameStrobe_O[14]
*92 FrameStrobe_O[15]
*93 FrameStrobe_O[16]
*94 FrameStrobe_O[17]
*95 FrameStrobe_O[18]
*96 FrameStrobe_O[19]
*97 FrameStrobe_O[1]
*98 FrameStrobe_O[2]
*99 FrameStrobe_O[3]
*100 FrameStrobe_O[4]
*101 FrameStrobe_O[5]
*102 FrameStrobe_O[6]
*103 FrameStrobe_O[7]
*104 FrameStrobe_O[8]
*105 FrameStrobe_O[9]
*106 N1BEG[0]
*107 N1BEG[1]
*108 N1BEG[2]
*109 N1BEG[3]
*110 N2BEG[0]
*111 N2BEG[1]
*112 N2BEG[2]
*113 N2BEG[3]
*114 N2BEG[4]
*115 N2BEG[5]
*116 N2BEG[6]
*117 N2BEG[7]
*118 N2BEGb[0]
*119 N2BEGb[1]
*120 N2BEGb[2]
*121 N2BEGb[3]
*122 N2BEGb[4]
*123 N2BEGb[5]
*124 N2BEGb[6]
*125 N2BEGb[7]
*126 N4BEG[0]
*127 N4BEG[10]
*128 N4BEG[11]
*129 N4BEG[12]
*130 N4BEG[13]
*131 N4BEG[14]
*132 N4BEG[15]
*133 N4BEG[1]
*134 N4BEG[2]
*135 N4BEG[3]
*136 N4BEG[4]
*137 N4BEG[5]
*138 N4BEG[6]
*139 N4BEG[7]
*140 N4BEG[8]
*141 N4BEG[9]
*142 NN4BEG[0]
*143 NN4BEG[10]
*144 NN4BEG[11]
*145 NN4BEG[12]
*146 NN4BEG[13]
*147 NN4BEG[14]
*148 NN4BEG[15]
*149 NN4BEG[1]
*150 NN4BEG[2]
*151 NN4BEG[3]
*152 NN4BEG[4]
*153 NN4BEG[5]
*154 NN4BEG[6]
*155 NN4BEG[7]
*156 NN4BEG[8]
*157 NN4BEG[9]
*158 S1END[0]
*159 S1END[1]
*160 S1END[2]
*161 S1END[3]
*162 S2END[0]
*163 S2END[1]
*164 S2END[2]
*165 S2END[3]
*166 S2END[4]
*167 S2END[5]
*168 S2END[6]
*169 S2END[7]
*170 S2MID[0]
*171 S2MID[1]
*172 S2MID[2]
*173 S2MID[3]
*174 S2MID[4]
*175 S2MID[5]
*176 S2MID[6]
*177 S2MID[7]
*178 S4END[0]
*179 S4END[10]
*180 S4END[11]
*181 S4END[12]
*182 S4END[13]
*183 S4END[14]
*184 S4END[15]
*185 S4END[1]
*186 S4END[2]
*187 S4END[3]
*188 S4END[4]
*189 S4END[5]
*190 S4END[6]
*191 S4END[7]
*192 S4END[8]
*193 S4END[9]
*194 SS4END[0]
*195 SS4END[10]
*196 SS4END[11]
*197 SS4END[12]
*198 SS4END[13]
*199 SS4END[14]
*200 SS4END[15]
*201 SS4END[1]
*202 SS4END[2]
*203 SS4END[3]
*204 SS4END[4]
*205 SS4END[5]
*206 SS4END[6]
*207 SS4END[7]
*208 SS4END[8]
*209 SS4END[9]
*210 UserCLK
*211 UserCLKo
*212 VALUE_top0
*213 VALUE_top1
*214 VALUE_top2
*215 VALUE_top3
*216 VALUE_top4
*217 VALUE_top5
*218 VALUE_top6
*219 VALUE_top7
*222 Inst_S_EF_DAC8_ConfigMem\.Inst_frame0_bit0\.Q
*223 Inst_S_EF_DAC8_ConfigMem\.Inst_frame0_bit1\.Q
*224 Inst_S_EF_DAC8_ConfigMem\.Inst_frame0_bit10\.Q
*225 Inst_S_EF_DAC8_ConfigMem\.Inst_frame0_bit11\.Q
*226 Inst_S_EF_DAC8_ConfigMem\.Inst_frame0_bit12\.Q
*227 Inst_S_EF_DAC8_ConfigMem\.Inst_frame0_bit13\.Q
*228 Inst_S_EF_DAC8_ConfigMem\.Inst_frame0_bit14\.Q
*229 Inst_S_EF_DAC8_ConfigMem\.Inst_frame0_bit15\.Q
*230 Inst_S_EF_DAC8_ConfigMem\.Inst_frame0_bit16\.Q
*231 Inst_S_EF_DAC8_ConfigMem\.Inst_frame0_bit17\.Q
*232 Inst_S_EF_DAC8_ConfigMem\.Inst_frame0_bit18\.Q
*233 Inst_S_EF_DAC8_ConfigMem\.Inst_frame0_bit19\.Q
*234 Inst_S_EF_DAC8_ConfigMem\.Inst_frame0_bit2\.Q
*235 Inst_S_EF_DAC8_ConfigMem\.Inst_frame0_bit20\.Q
*236 Inst_S_EF_DAC8_ConfigMem\.Inst_frame0_bit21\.Q
*237 Inst_S_EF_DAC8_ConfigMem\.Inst_frame0_bit22\.Q
*238 Inst_S_EF_DAC8_ConfigMem\.Inst_frame0_bit23\.Q
*239 Inst_S_EF_DAC8_ConfigMem\.Inst_frame0_bit24\.Q
*240 Inst_S_EF_DAC8_ConfigMem\.Inst_frame0_bit25\.Q
*241 Inst_S_EF_DAC8_ConfigMem\.Inst_frame0_bit26\.Q
*242 Inst_S_EF_DAC8_ConfigMem\.Inst_frame0_bit27\.Q
*243 Inst_S_EF_DAC8_ConfigMem\.Inst_frame0_bit28\.Q
*244 Inst_S_EF_DAC8_ConfigMem\.Inst_frame0_bit29\.Q
*245 Inst_S_EF_DAC8_ConfigMem\.Inst_frame0_bit3\.Q
*246 Inst_S_EF_DAC8_ConfigMem\.Inst_frame0_bit30\.Q
*247 Inst_S_EF_DAC8_ConfigMem\.Inst_frame0_bit31\.Q
*248 Inst_S_EF_DAC8_ConfigMem\.Inst_frame0_bit4\.Q
*249 Inst_S_EF_DAC8_ConfigMem\.Inst_frame0_bit5\.Q
*250 Inst_S_EF_DAC8_ConfigMem\.Inst_frame0_bit6\.Q
*251 Inst_S_EF_DAC8_ConfigMem\.Inst_frame0_bit7\.Q
*252 Inst_S_EF_DAC8_ConfigMem\.Inst_frame0_bit8\.Q
*253 Inst_S_EF_DAC8_ConfigMem\.Inst_frame0_bit9\.Q
*254 Inst_S_EF_DAC8_ConfigMem\.Inst_frame1_bit16\.Q
*255 Inst_S_EF_DAC8_ConfigMem\.Inst_frame1_bit17\.Q
*256 Inst_S_EF_DAC8_ConfigMem\.Inst_frame1_bit18\.Q
*257 Inst_S_EF_DAC8_ConfigMem\.Inst_frame1_bit19\.Q
*258 Inst_S_EF_DAC8_ConfigMem\.Inst_frame1_bit20\.Q
*259 Inst_S_EF_DAC8_ConfigMem\.Inst_frame1_bit21\.Q
*260 Inst_S_EF_DAC8_ConfigMem\.Inst_frame1_bit22\.Q
*261 Inst_S_EF_DAC8_ConfigMem\.Inst_frame1_bit23\.Q
*262 Inst_S_EF_DAC8_ConfigMem\.Inst_frame1_bit24\.Q
*263 Inst_S_EF_DAC8_ConfigMem\.Inst_frame1_bit25\.Q
*264 Inst_S_EF_DAC8_ConfigMem\.Inst_frame1_bit26\.Q
*265 Inst_S_EF_DAC8_ConfigMem\.Inst_frame1_bit27\.Q
*266 Inst_S_EF_DAC8_ConfigMem\.Inst_frame1_bit28\.Q
*267 Inst_S_EF_DAC8_ConfigMem\.Inst_frame1_bit29\.Q
*268 Inst_S_EF_DAC8_ConfigMem\.Inst_frame1_bit30\.Q
*269 Inst_S_EF_DAC8_ConfigMem\.Inst_frame1_bit31\.Q
*270 Inst_S_EF_DAC8_switch_matrix\.N2BEG0
*271 Inst_S_EF_DAC8_switch_matrix\.N2BEG1
*272 Inst_S_EF_DAC8_switch_matrix\.N2BEG2
*273 Inst_S_EF_DAC8_switch_matrix\.N2BEG3
*274 Inst_S_EF_DAC8_switch_matrix\.N2BEG4
*275 Inst_S_EF_DAC8_switch_matrix\.N2BEG5
*276 Inst_S_EF_DAC8_switch_matrix\.N2BEG6
*277 Inst_S_EF_DAC8_switch_matrix\.N2BEG7
*278 Inst_S_EF_DAC8_switch_matrix\.N2BEGb0
*279 Inst_S_EF_DAC8_switch_matrix\.N2BEGb1
*280 Inst_S_EF_DAC8_switch_matrix\.N2BEGb2
*281 Inst_S_EF_DAC8_switch_matrix\.N2BEGb3
*282 Inst_S_EF_DAC8_switch_matrix\.N2BEGb4
*283 Inst_S_EF_DAC8_switch_matrix\.N2BEGb5
*284 Inst_S_EF_DAC8_switch_matrix\.N2BEGb6
*285 Inst_S_EF_DAC8_switch_matrix\.N2BEGb7
*286 net1
*287 net10
*288 net100
*289 net101
*290 net102
*291 net103
*292 net104
*293 net105
*294 net106
*295 net107
*296 net108
*297 net109
*298 net11
*299 net110
*300 net111
*301 net112
*302 net113
*303 net114
*304 net115
*305 net116
*306 net117
*307 net118
*308 net119
*309 net12
*310 net120
*311 net121
*312 net122
*313 net123
*314 net124
*315 net125
*316 net126
*317 net127
*318 net128
*319 net129
*320 net13
*321 net130
*322 net131
*323 net132
*324 net133
*325 net134
*326 net135
*327 net136
*328 net137
*329 net138
*330 net139
*331 net14
*332 net140
*333 net141
*334 net142
*335 net143
*336 net144
*337 net145
*338 net146
*339 net147
*340 net148
*341 net149
*342 net15
*343 net150
*344 net151
*345 net152
*346 net153
*347 net154
*348 net155
*349 net156
*350 net157
*351 net158
*352 net159
*353 net16
*354 net160
*355 net161
*356 net162
*357 net163
*358 net164
*359 net165
*360 net166
*361 net167
*362 net168
*363 net169
*364 net17
*365 net170
*366 net171
*367 net172
*368 net173
*369 net174
*370 net175
*371 net176
*372 net177
*373 net178
*374 net179
*375 net18
*376 net180
*377 net181
*378 net182
*379 net183
*380 net184
*381 net185
*382 net186
*383 net187
*384 net188
*385 net189
*386 net19
*387 net190
*388 net191
*389 net192
*390 net193
*391 net194
*392 net195
*393 net2
*394 net20
*395 net21
*396 net22
*397 net23
*398 net24
*399 net25
*400 net26
*401 net27
*402 net28
*403 net29
*404 net3
*405 net30
*406 net31
*407 net32
*408 net33
*409 net34
*410 net35
*411 net36
*412 net37
*413 net38
*414 net39
*415 net4
*416 net40
*417 net41
*418 net42
*419 net43
*420 net44
*421 net45
*422 net46
*423 net47
*424 net48
*425 net49
*426 net5
*427 net50
*428 net51
*429 net52
*430 net53
*431 net54
*432 net55
*433 net56
*434 net57
*435 net58
*436 net59
*437 net6
*438 net60
*439 net61
*440 net62
*441 net63
*442 net64
*443 net65
*444 net66
*445 net67
*446 net68
*447 net69
*448 net7
*449 net70
*450 net71
*451 net72
*452 net73
*453 net74
*454 net75
*455 net76
*456 net77
*457 net78
*458 net79
*459 net8
*460 net80
*461 net81
*462 net82
*463 net83
*464 net84
*465 net85
*466 net86
*467 net87
*468 net88
*469 net89
*470 net9
*471 net90
*472 net91
*473 net92
*474 net93
*475 net94
*476 net95
*477 net96
*478 net97
*479 net98
*480 net99
*481 ANTENNA_1
*482 ANTENNA_10
*483 ANTENNA_11
*484 ANTENNA_12
*485 ANTENNA_13
*486 ANTENNA_14
*487 ANTENNA_15
*488 ANTENNA_16
*489 ANTENNA_17
*490 ANTENNA_18
*491 ANTENNA_19
*492 ANTENNA_2
*493 ANTENNA_3
*494 ANTENNA_4
*495 ANTENNA_5
*496 ANTENNA_6
*497 ANTENNA_7
*498 ANTENNA_8
*499 ANTENNA_9
*500 FILLER_0_103
*501 FILLER_0_110
*502 FILLER_0_113
*503 FILLER_0_125
*504 FILLER_0_137
*505 FILLER_0_141
*506 FILLER_0_153
*507 FILLER_0_165
*508 FILLER_0_169
*509 FILLER_0_181
*510 FILLER_0_193
*511 FILLER_0_197
*512 FILLER_0_209
*513 FILLER_0_221
*514 FILLER_0_225
*515 FILLER_0_239
*516 FILLER_0_24
*517 FILLER_0_251
*518 FILLER_0_253
*519 FILLER_0_265
*520 FILLER_0_277
*521 FILLER_0_281
*522 FILLER_0_29
*523 FILLER_0_293
*524 FILLER_0_299
*525 FILLER_0_307
*526 FILLER_0_309
*527 FILLER_0_321
*528 FILLER_0_333
*529 FILLER_0_337
*530 FILLER_0_349
*531 FILLER_0_35
*532 FILLER_0_361
*533 FILLER_0_365
*534 FILLER_0_377
*535 FILLER_0_389
*536 FILLER_0_393
*537 FILLER_0_397
*538 FILLER_0_43
*539 FILLER_0_50
*540 FILLER_0_57
*541 FILLER_0_65
*542 FILLER_0_73
*543 FILLER_0_80
*544 FILLER_0_85
*545 FILLER_0_95
*546 FILLER_10_100
*547 FILLER_10_106
*548 FILLER_10_110
*549 FILLER_10_115
*550 FILLER_10_121
*551 FILLER_10_125
*552 FILLER_10_130
*553 FILLER_10_134
*554 FILLER_10_139
*555 FILLER_10_148
*556 FILLER_10_157
*557 FILLER_10_161
*558 FILLER_10_166
*559 FILLER_10_178
*560 FILLER_10_189
*561 FILLER_10_195
*562 FILLER_10_197
*563 FILLER_10_202
*564 FILLER_10_206
*565 FILLER_10_210
*566 FILLER_10_216
*567 FILLER_10_228
*568 FILLER_10_240
*569 FILLER_10_259
*570 FILLER_10_264
*571 FILLER_10_278
*572 FILLER_10_290
*573 FILLER_10_296
*574 FILLER_10_300
*575 FILLER_10_306
*576 FILLER_10_318
*577 FILLER_10_32
*578 FILLER_10_343
*579 FILLER_10_355
*580 FILLER_10_363
*581 FILLER_10_369
*582 FILLER_10_37
*583 FILLER_10_379
*584 FILLER_10_385
*585 FILLER_10_391
*586 FILLER_10_395
*587 FILLER_10_41
*588 FILLER_10_46
*589 FILLER_10_58
*590 FILLER_10_64
*591 FILLER_10_70
*592 FILLER_10_82
*593 FILLER_10_95
*594 FILLER_11_113
*595 FILLER_11_13
*596 FILLER_11_141
*597 FILLER_11_169
*598 FILLER_11_175
*599 FILLER_11_185
*600 FILLER_11_197
*601 FILLER_11_222
*602 FILLER_11_276
*603 FILLER_11_281
*604 FILLER_11_289
*605 FILLER_11_29
*606 FILLER_11_329
*607 FILLER_11_334
*608 FILLER_11_340
*609 FILLER_11_362
*610 FILLER_11_389
*611 FILLER_11_409
*612 FILLER_11_57
*613 FILLER_11_85
*614 FILLER_11_98
*615 FILLER_1_100
*616 FILLER_1_125
*617 FILLER_1_137
*618 FILLER_1_149
*619 FILLER_1_161
*620 FILLER_1_167
*621 FILLER_1_19
*622 FILLER_1_196
*623 FILLER_1_208
*624 FILLER_1_220
*625 FILLER_1_225
*626 FILLER_1_250
*627 FILLER_1_262
*628 FILLER_1_274
*629 FILLER_1_281
*630 FILLER_1_31
*631 FILLER_1_311
*632 FILLER_1_323
*633 FILLER_1_335
*634 FILLER_1_337
*635 FILLER_1_349
*636 FILLER_1_361
*637 FILLER_1_373
*638 FILLER_1_385
*639 FILLER_1_391
*640 FILLER_1_393
*641 FILLER_1_397
*642 FILLER_1_402
*643 FILLER_1_43
*644 FILLER_1_60
*645 FILLER_1_73
*646 FILLER_1_77
*647 FILLER_2_12
*648 FILLER_2_123
*649 FILLER_2_135
*650 FILLER_2_139
*651 FILLER_2_157
*652 FILLER_2_170
*653 FILLER_2_197
*654 FILLER_2_209
*655 FILLER_2_217
*656 FILLER_2_24
*657 FILLER_2_251
*658 FILLER_2_256
*659 FILLER_2_268
*660 FILLER_2_280
*661 FILLER_2_29
*662 FILLER_2_323
*663 FILLER_2_335
*664 FILLER_2_341
*665 FILLER_2_350
*666 FILLER_2_362
*667 FILLER_2_365
*668 FILLER_2_377
*669 FILLER_2_389
*670 FILLER_2_398
*671 FILLER_2_43
*672 FILLER_2_82
*673 FILLER_2_85
*674 FILLER_2_89
*675 FILLER_3_105
*676 FILLER_3_125
*677 FILLER_3_137
*678 FILLER_3_149
*679 FILLER_3_155
*680 FILLER_3_169
*681 FILLER_3_198
*682 FILLER_3_21
*683 FILLER_3_210
*684 FILLER_3_222
*685 FILLER_3_252
*686 FILLER_3_264
*687 FILLER_3_27
*688 FILLER_3_276
*689 FILLER_3_281
*690 FILLER_3_285
*691 FILLER_3_325
*692 FILLER_3_333
*693 FILLER_3_337
*694 FILLER_3_349
*695 FILLER_3_361
*696 FILLER_3_373
*697 FILLER_3_385
*698 FILLER_3_391
*699 FILLER_3_393
*700 FILLER_3_405
*701 FILLER_3_409
*702 FILLER_3_51
*703 FILLER_3_80
*704 FILLER_3_9
*705 FILLER_3_92
*706 FILLER_3_97
*707 FILLER_4_121
*708 FILLER_4_133
*709 FILLER_4_139
*710 FILLER_4_141
*711 FILLER_4_153
*712 FILLER_4_165
*713 FILLER_4_172
*714 FILLER_4_193
*715 FILLER_4_197
*716 FILLER_4_209
*717 FILLER_4_21
*718 FILLER_4_221
*719 FILLER_4_244
*720 FILLER_4_253
*721 FILLER_4_265
*722 FILLER_4_27
*723 FILLER_4_277
*724 FILLER_4_289
*725 FILLER_4_29
*726 FILLER_4_307
*727 FILLER_4_309
*728 FILLER_4_314
*729 FILLER_4_326
*730 FILLER_4_338
*731 FILLER_4_350
*732 FILLER_4_36
*733 FILLER_4_362
*734 FILLER_4_365
*735 FILLER_4_377
*736 FILLER_4_389
*737 FILLER_4_401
*738 FILLER_4_409
*739 FILLER_4_75
*740 FILLER_4_83
*741 FILLER_4_85
*742 FILLER_4_9
*743 FILLER_4_97
*744 FILLER_5_105
*745 FILLER_5_111
*746 FILLER_5_113
*747 FILLER_5_125
*748 FILLER_5_137
*749 FILLER_5_149
*750 FILLER_5_161
*751 FILLER_5_167
*752 FILLER_5_169
*753 FILLER_5_181
*754 FILLER_5_193
*755 FILLER_5_205
*756 FILLER_5_21
*757 FILLER_5_211
*758 FILLER_5_216
*759 FILLER_5_222
*760 FILLER_5_225
*761 FILLER_5_237
*762 FILLER_5_249
*763 FILLER_5_261
*764 FILLER_5_273
*765 FILLER_5_279
*766 FILLER_5_281
*767 FILLER_5_293
*768 FILLER_5_307
*769 FILLER_5_319
*770 FILLER_5_33
*771 FILLER_5_331
*772 FILLER_5_335
*773 FILLER_5_337
*774 FILLER_5_349
*775 FILLER_5_361
*776 FILLER_5_373
*777 FILLER_5_385
*778 FILLER_5_391
*779 FILLER_5_393
*780 FILLER_5_405
*781 FILLER_5_409
*782 FILLER_5_41
*783 FILLER_5_51
*784 FILLER_5_55
*785 FILLER_5_57
*786 FILLER_5_69
*787 FILLER_5_81
*788 FILLER_5_9
*789 FILLER_5_93
*790 FILLER_6_12
*791 FILLER_6_121
*792 FILLER_6_133
*793 FILLER_6_139
*794 FILLER_6_144
*795 FILLER_6_156
*796 FILLER_6_168
*797 FILLER_6_180
*798 FILLER_6_192
*799 FILLER_6_212
*800 FILLER_6_224
*801 FILLER_6_236
*802 FILLER_6_24
*803 FILLER_6_248
*804 FILLER_6_253
*805 FILLER_6_283
*806 FILLER_6_29
*807 FILLER_6_295
*808 FILLER_6_307
*809 FILLER_6_309
*810 FILLER_6_321
*811 FILLER_6_333
*812 FILLER_6_345
*813 FILLER_6_357
*814 FILLER_6_363
*815 FILLER_6_365
*816 FILLER_6_377
*817 FILLER_6_389
*818 FILLER_6_397
*819 FILLER_6_406
*820 FILLER_6_41
*821 FILLER_6_53
*822 FILLER_6_65
*823 FILLER_6_77
*824 FILLER_6_83
*825 FILLER_6_97
*826 FILLER_7_113
*827 FILLER_7_13
*828 FILLER_7_161
*829 FILLER_7_167
*830 FILLER_7_169
*831 FILLER_7_181
*832 FILLER_7_228
*833 FILLER_7_240
*834 FILLER_7_25
*835 FILLER_7_252
*836 FILLER_7_258
*837 FILLER_7_305
*838 FILLER_7_317
*839 FILLER_7_329
*840 FILLER_7_335
*841 FILLER_7_337
*842 FILLER_7_349
*843 FILLER_7_361
*844 FILLER_7_37
*845 FILLER_7_373
*846 FILLER_7_385
*847 FILLER_7_391
*848 FILLER_7_393
*849 FILLER_7_405
*850 FILLER_7_49
*851 FILLER_7_55
*852 FILLER_7_69
*853 FILLER_7_91
*854 FILLER_7_99
*855 FILLER_8_15
*856 FILLER_8_165
*857 FILLER_8_177
*858 FILLER_8_197
*859 FILLER_8_235
*860 FILLER_8_251
*861 FILLER_8_253
*862 FILLER_8_266
*863 FILLER_8_27
*864 FILLER_8_29
*865 FILLER_8_304
*866 FILLER_8_309
*867 FILLER_8_321
*868 FILLER_8_333
*869 FILLER_8_345
*870 FILLER_8_357
*871 FILLER_8_363
*872 FILLER_8_365
*873 FILLER_8_377
*874 FILLER_8_385
*875 FILLER_8_397
*876 FILLER_8_41
*877 FILLER_8_415
*878 FILLER_8_45
*879 FILLER_8_66
*880 FILLER_9_113
*881 FILLER_9_118
*882 FILLER_9_134
*883 FILLER_9_156
*884 FILLER_9_16
*885 FILLER_9_166
*886 FILLER_9_169
*887 FILLER_9_181
*888 FILLER_9_199
*889 FILLER_9_225
*890 FILLER_9_23
*891 FILLER_9_237
*892 FILLER_9_249
*893 FILLER_9_278
*894 FILLER_9_293
*895 FILLER_9_305
*896 FILLER_9_317
*897 FILLER_9_324
*898 FILLER_9_337
*899 FILLER_9_349
*900 FILLER_9_35
*901 FILLER_9_357
*902 FILLER_9_362
*903 FILLER_9_374
*904 FILLER_9_382
*905 FILLER_9_389
*906 FILLER_9_393
*907 FILLER_9_47
*908 FILLER_9_55
*909 FILLER_9_57
*910 FILLER_9_69
*911 FILLER_9_99
*912 PHY_EDGE_ROW_0_Left_12
*913 PHY_EDGE_ROW_0_Right_0
*914 PHY_EDGE_ROW_10_Left_22
*915 PHY_EDGE_ROW_10_Right_10
*916 PHY_EDGE_ROW_11_Left_23
*917 PHY_EDGE_ROW_11_Right_11
*918 PHY_EDGE_ROW_1_Left_13
*919 PHY_EDGE_ROW_1_Right_1
*920 PHY_EDGE_ROW_2_Left_14
*921 PHY_EDGE_ROW_2_Right_2
*922 PHY_EDGE_ROW_3_Left_15
*923 PHY_EDGE_ROW_3_Right_3
*924 PHY_EDGE_ROW_4_Left_16
*925 PHY_EDGE_ROW_4_Right_4
*926 PHY_EDGE_ROW_5_Left_17
*927 PHY_EDGE_ROW_5_Right_5
*928 PHY_EDGE_ROW_6_Left_18
*929 PHY_EDGE_ROW_6_Right_6
*930 PHY_EDGE_ROW_7_Left_19
*931 PHY_EDGE_ROW_7_Right_7
*932 PHY_EDGE_ROW_8_Left_20
*933 PHY_EDGE_ROW_8_Right_8
*934 PHY_EDGE_ROW_9_Left_21
*935 PHY_EDGE_ROW_9_Right_9
*936 S_EF_DAC8_190
*937 TAP_TAPCELL_ROW_0_24
*938 TAP_TAPCELL_ROW_0_25
*939 TAP_TAPCELL_ROW_0_26
*940 TAP_TAPCELL_ROW_0_27
*941 TAP_TAPCELL_ROW_0_28
*942 TAP_TAPCELL_ROW_0_29
*943 TAP_TAPCELL_ROW_0_30
*944 TAP_TAPCELL_ROW_0_31
*945 TAP_TAPCELL_ROW_0_32
*946 TAP_TAPCELL_ROW_0_33
*947 TAP_TAPCELL_ROW_0_34
*948 TAP_TAPCELL_ROW_0_35
*949 TAP_TAPCELL_ROW_0_36
*950 TAP_TAPCELL_ROW_0_37
*951 TAP_TAPCELL_ROW_10_101
*952 TAP_TAPCELL_ROW_10_102
*953 TAP_TAPCELL_ROW_10_103
*954 TAP_TAPCELL_ROW_10_104
*955 TAP_TAPCELL_ROW_10_105
*956 TAP_TAPCELL_ROW_10_106
*957 TAP_TAPCELL_ROW_10_107
*958 TAP_TAPCELL_ROW_11_108
*959 TAP_TAPCELL_ROW_11_109
*960 TAP_TAPCELL_ROW_11_110
*961 TAP_TAPCELL_ROW_11_111
*962 TAP_TAPCELL_ROW_11_112
*963 TAP_TAPCELL_ROW_11_113
*964 TAP_TAPCELL_ROW_11_114
*965 TAP_TAPCELL_ROW_11_115
*966 TAP_TAPCELL_ROW_11_116
*967 TAP_TAPCELL_ROW_11_117
*968 TAP_TAPCELL_ROW_11_118
*969 TAP_TAPCELL_ROW_11_119
*970 TAP_TAPCELL_ROW_11_120
*971 TAP_TAPCELL_ROW_11_121
*972 TAP_TAPCELL_ROW_1_38
*973 TAP_TAPCELL_ROW_1_39
*974 TAP_TAPCELL_ROW_1_40
*975 TAP_TAPCELL_ROW_1_41
*976 TAP_TAPCELL_ROW_1_42
*977 TAP_TAPCELL_ROW_1_43
*978 TAP_TAPCELL_ROW_1_44
*979 TAP_TAPCELL_ROW_2_45
*980 TAP_TAPCELL_ROW_2_46
*981 TAP_TAPCELL_ROW_2_47
*982 TAP_TAPCELL_ROW_2_48
*983 TAP_TAPCELL_ROW_2_49
*984 TAP_TAPCELL_ROW_2_50
*985 TAP_TAPCELL_ROW_2_51
*986 TAP_TAPCELL_ROW_3_52
*987 TAP_TAPCELL_ROW_3_53
*988 TAP_TAPCELL_ROW_3_54
*989 TAP_TAPCELL_ROW_3_55
*990 TAP_TAPCELL_ROW_3_56
*991 TAP_TAPCELL_ROW_3_57
*992 TAP_TAPCELL_ROW_3_58
*993 TAP_TAPCELL_ROW_4_59
*994 TAP_TAPCELL_ROW_4_60
*995 TAP_TAPCELL_ROW_4_61
*996 TAP_TAPCELL_ROW_4_62
*997 TAP_TAPCELL_ROW_4_63
*998 TAP_TAPCELL_ROW_4_64
*999 TAP_TAPCELL_ROW_4_65
*1000 TAP_TAPCELL_ROW_5_66
*1001 TAP_TAPCELL_ROW_5_67
*1002 TAP_TAPCELL_ROW_5_68
*1003 TAP_TAPCELL_ROW_5_69
*1004 TAP_TAPCELL_ROW_5_70
*1005 TAP_TAPCELL_ROW_5_71
*1006 TAP_TAPCELL_ROW_5_72
*1007 TAP_TAPCELL_ROW_6_73
*1008 TAP_TAPCELL_ROW_6_74
*1009 TAP_TAPCELL_ROW_6_75
*1010 TAP_TAPCELL_ROW_6_76
*1011 TAP_TAPCELL_ROW_6_77
*1012 TAP_TAPCELL_ROW_6_78
*1013 TAP_TAPCELL_ROW_6_79
*1014 TAP_TAPCELL_ROW_7_80
*1015 TAP_TAPCELL_ROW_7_81
*1016 TAP_TAPCELL_ROW_7_82
*1017 TAP_TAPCELL_ROW_7_83
*1018 TAP_TAPCELL_ROW_7_84
*1019 TAP_TAPCELL_ROW_7_85
*1020 TAP_TAPCELL_ROW_7_86
*1021 TAP_TAPCELL_ROW_8_87
*1022 TAP_TAPCELL_ROW_8_88
*1023 TAP_TAPCELL_ROW_8_89
*1024 TAP_TAPCELL_ROW_8_90
*1025 TAP_TAPCELL_ROW_8_91
*1026 TAP_TAPCELL_ROW_8_92
*1027 TAP_TAPCELL_ROW_8_93
*1028 TAP_TAPCELL_ROW_9_100
*1029 TAP_TAPCELL_ROW_9_94
*1030 TAP_TAPCELL_ROW_9_95
*1031 TAP_TAPCELL_ROW_9_96
*1032 TAP_TAPCELL_ROW_9_97
*1033 TAP_TAPCELL_ROW_9_98
*1034 TAP_TAPCELL_ROW_9_99
*1035 _000_
*1036 _001_
*1037 _002_
*1038 _003_
*1039 _004_
*1040 _005_
*1041 _006_
*1042 _007_
*1043 _008_
*1044 _009_
*1045 _010_
*1046 _011_
*1047 _012_
*1048 _013_
*1049 _014_
*1050 _015_
*1051 _016_
*1052 _017_
*1053 _018_
*1054 _019_
*1055 _020_
*1056 _021_
*1057 _022_
*1058 _023_
*1059 _024_
*1060 _025_
*1061 _026_
*1062 _027_
*1063 _028_
*1064 _029_
*1065 _030_
*1066 _031_
*1067 _032_
*1068 _033_
*1069 _034_
*1070 _035_
*1071 _036_
*1072 _037_
*1073 _038_
*1074 _039_
*1075 _040_
*1076 _041_
*1077 _042_
*1078 _043_
*1079 _044_
*1080 _045_
*1081 _046_
*1082 _047_
*1083 _048_
*1084 _049_
*1085 _050_
*1086 _051_
*1087 _052_
*1088 _053_
*1089 _054_
*1090 _055_
*1091 _056_
*1092 _057_
*1093 _058_
*1094 _059_
*1095 _060_
*1096 _061_
*1097 _062_
*1098 _063_
*1099 _064_
*1100 _065_
*1101 _066_
*1102 _067_
*1103 _068_
*1104 _069_
*1105 _070_
*1106 _071_
*1107 _073_
*1108 _074_
*1109 _075_
*1110 _076_
*1111 _077_
*1112 _078_
*1113 _079_
*1114 _080_
*1115 _081_
*1116 _082_
*1117 _083_
*1118 _084_
*1119 _085_
*1120 _086_
*1121 _087_
*1122 _088_
*1123 _089_
*1124 _090_
*1125 _091_
*1126 _092_
*1127 _093_
*1128 _094_
*1129 _095_
*1130 _096_
*1131 _097_
*1132 _098_
*1133 _099_
*1134 _100_
*1135 _101_
*1136 _102_
*1137 _103_
*1138 _104_
*1139 _105_
*1140 _106_
*1141 _107_
*1142 _108_
*1143 _109_
*1144 _110_
*1145 _111_
*1146 _112_
*1147 _113_
*1148 _114_
*1149 _115_
*1150 _116_
*1151 _117_
*1152 _118_
*1153 _119_
*1154 _120_
*1155 _121_
*1156 _122_
*1157 _123_
*1158 _124_
*1159 _125_
*1160 _126_
*1161 _127_
*1162 _128_
*1163 _129_
*1164 _130_
*1165 _131_
*1166 _132_
*1167 _133_
*1168 _134_
*1169 _135_
*1170 _136_
*1171 _137_
*1172 _138_
*1173 _139_
*1174 _140_
*1175 _141_
*1176 _142_
*1177 _143_
*1178 _144_
*1179 _145_
*1180 _146_
*1181 _147_
*1182 _148_
*1183 _149_
*1184 _150_
*1185 _151_
*1186 _152_
*1187 _153_
*1188 _154_
*1189 _155_
*1190 _156_
*1191 _157_
*1192 _158_
*1193 _159_
*1194 _160_
*1195 _161_
*1196 _162_
*1197 _163_
*1198 _164_
*1199 _165_
*1200 _166_
*1201 _167_
*1202 _168_
*1203 _169_
*1204 _170_
*1205 _171_
*1206 _172_
*1207 _173_
*1208 _174_
*1209 _175_
*1210 _176_
*1211 _177_
*1212 fanout13
*1213 fanout14
*1214 fanout15
*1215 fanout16
*1216 fanout17
*1217 fanout18
*1218 input1
*1219 input10
*1220 input11
*1221 input12
*1222 input13
*1223 input14
*1224 input15
*1225 input16
*1226 input17
*1227 input18
*1228 input19
*1229 input2
*1230 input20
*1231 input21
*1232 input22
*1233 input23
*1234 input24
*1235 input25
*1236 input26
*1237 input27
*1238 input28
*1239 input29
*1240 input3
*1241 input30
*1242 input31
*1243 input32
*1244 input33
*1245 input34
*1246 input35
*1247 input36
*1248 input37
*1249 input38
*1250 input39
*1251 input4
*1252 input40
*1253 input41
*1254 input42
*1255 input43
*1256 input44
*1257 input45
*1258 input46
*1259 input47
*1260 input48
*1261 input49
*1262 input5
*1263 input50
*1264 input51
*1265 input52
*1266 input53
*1267 input54
*1268 input55
*1269 input56
*1270 input57
*1271 input58
*1272 input59
*1273 input6
*1274 input60
*1275 input61
*1276 input62
*1277 input63
*1278 input64
*1279 input65
*1280 input66
*1281 input67
*1282 input68
*1283 input69
*1284 input7
*1285 input70
*1286 input71
*1287 input72
*1288 input73
*1289 input74
*1290 input75
*1291 input76
*1292 input8
*1293 input9
*1294 output100
*1295 output101
*1296 output102
*1297 output103
*1298 output104
*1299 output105
*1300 output106
*1301 output107
*1302 output108
*1303 output109
*1304 output110
*1305 output111
*1306 output112
*1307 output113
*1308 output114
*1309 output115
*1310 output116
*1311 output117
*1312 output118
*1313 output119
*1314 output120
*1315 output121
*1316 output122
*1317 output123
*1318 output124
*1319 output125
*1320 output126
*1321 output127
*1322 output128
*1323 output129
*1324 output130
*1325 output131
*1326 output132
*1327 output133
*1328 output134
*1329 output135
*1330 output136
*1331 output137
*1332 output138
*1333 output139
*1334 output140
*1335 output141
*1336 output142
*1337 output143
*1338 output144
*1339 output145
*1340 output146
*1341 output147
*1342 output148
*1343 output149
*1344 output150
*1345 output151
*1346 output152
*1347 output153
*1348 output154
*1349 output155
*1350 output156
*1351 output157
*1352 output158
*1353 output159
*1354 output160
*1355 output161
*1356 output162
*1357 output163
*1358 output164
*1359 output165
*1360 output166
*1361 output167
*1362 output168
*1363 output169
*1364 output170
*1365 output171
*1366 output172
*1367 output173
*1368 output174
*1369 output175
*1370 output176
*1371 output177
*1372 output178
*1373 output179
*1374 output180
*1375 output181
*1376 output182
*1377 output183
*1378 output184
*1379 output185
*1380 output186
*1381 output187
*1382 output188
*1383 output189
*1384 output77
*1385 output78
*1386 output79
*1387 output80
*1388 output81
*1389 output82
*1390 output83
*1391 output84
*1392 output85
*1393 output86
*1394 output87
*1395 output88
*1396 output89
*1397 output90
*1398 output91
*1399 output92
*1400 output93
*1401 output94
*1402 output95
*1403 output96
*1404 output97
*1405 output98
*1406 output99

*PORTS
Co O
FrameData[0] I
FrameData[10] I
FrameData[11] I
FrameData[12] I
FrameData[13] I
FrameData[14] I
FrameData[15] I
FrameData[16] I
FrameData[17] I
FrameData[18] I
FrameData[19] I
FrameData[1] I
FrameData[20] I
FrameData[21] I
FrameData[22] I
FrameData[23] I
FrameData[24] I
FrameData[25] I
FrameData[26] I
FrameData[27] I
FrameData[28] I
FrameData[29] I
FrameData[2] I
FrameData[30] I
FrameData[31] I
FrameData[3] I
FrameData[4] I
FrameData[5] I
FrameData[6] I
FrameData[7] I
FrameData[8] I
FrameData[9] I
FrameData_O[0] O
FrameData_O[10] O
FrameData_O[11] O
FrameData_O[12] O
FrameData_O[13] O
FrameData_O[14] O
FrameData_O[15] O
FrameData_O[16] O
FrameData_O[17] O
FrameData_O[18] O
FrameData_O[19] O
FrameData_O[1] O
FrameData_O[20] O
FrameData_O[21] O
FrameData_O[22] O
FrameData_O[23] O
FrameData_O[24] O
FrameData_O[25] O
FrameData_O[26] O
FrameData_O[27] O
FrameData_O[28] O
FrameData_O[29] O
FrameData_O[2] O
FrameData_O[30] O
FrameData_O[31] O
FrameData_O[3] O
FrameData_O[4] O
FrameData_O[5] O
FrameData_O[6] O
FrameData_O[7] O
FrameData_O[8] O
FrameData_O[9] O
FrameStrobe[0] I
FrameStrobe[10] I
FrameStrobe[11] I
FrameStrobe[12] I
FrameStrobe[13] I
FrameStrobe[14] I
FrameStrobe[15] I
FrameStrobe[16] I
FrameStrobe[17] I
FrameStrobe[18] I
FrameStrobe[19] I
FrameStrobe[1] I
FrameStrobe[2] I
FrameStrobe[3] I
FrameStrobe[4] I
FrameStrobe[5] I
FrameStrobe[6] I
FrameStrobe[7] I
FrameStrobe[8] I
FrameStrobe[9] I
FrameStrobe_O[0] O
FrameStrobe_O[10] O
FrameStrobe_O[11] O
FrameStrobe_O[12] O
FrameStrobe_O[13] O
FrameStrobe_O[14] O
FrameStrobe_O[15] O
FrameStrobe_O[16] O
FrameStrobe_O[17] O
FrameStrobe_O[18] O
FrameStrobe_O[19] O
FrameStrobe_O[1] O
FrameStrobe_O[2] O
FrameStrobe_O[3] O
FrameStrobe_O[4] O
FrameStrobe_O[5] O
FrameStrobe_O[6] O
FrameStrobe_O[7] O
FrameStrobe_O[8] O
FrameStrobe_O[9] O
N1BEG[0] O
N1BEG[1] O
N1BEG[2] O
N1BEG[3] O
N2BEG[0] O
N2BEG[1] O
N2BEG[2] O
N2BEG[3] O
N2BEG[4] O
N2BEG[5] O
N2BEG[6] O
N2BEG[7] O
N2BEGb[0] O
N2BEGb[1] O
N2BEGb[2] O
N2BEGb[3] O
N2BEGb[4] O
N2BEGb[5] O
N2BEGb[6] O
N2BEGb[7] O
N4BEG[0] O
N4BEG[10] O
N4BEG[11] O
N4BEG[12] O
N4BEG[13] O
N4BEG[14] O
N4BEG[15] O
N4BEG[1] O
N4BEG[2] O
N4BEG[3] O
N4BEG[4] O
N4BEG[5] O
N4BEG[6] O
N4BEG[7] O
N4BEG[8] O
N4BEG[9] O
NN4BEG[0] O
NN4BEG[10] O
NN4BEG[11] O
NN4BEG[12] O
NN4BEG[13] O
NN4BEG[14] O
NN4BEG[15] O
NN4BEG[1] O
NN4BEG[2] O
NN4BEG[3] O
NN4BEG[4] O
NN4BEG[5] O
NN4BEG[6] O
NN4BEG[7] O
NN4BEG[8] O
NN4BEG[9] O
S1END[0] I
S1END[1] I
S1END[2] I
S1END[3] I
S2END[0] I
S2END[1] I
S2END[2] I
S2END[3] I
S2END[4] I
S2END[5] I
S2END[6] I
S2END[7] I
S2MID[0] I
S2MID[1] I
S2MID[2] I
S2MID[3] I
S2MID[4] I
S2MID[5] I
S2MID[6] I
S2MID[7] I
S4END[0] I
S4END[10] I
S4END[11] I
S4END[12] I
S4END[13] I
S4END[14] I
S4END[15] I
S4END[1] I
S4END[2] I
S4END[3] I
S4END[4] I
S4END[5] I
S4END[6] I
S4END[7] I
S4END[8] I
S4END[9] I
SS4END[0] I
SS4END[10] I
SS4END[11] I
SS4END[12] I
SS4END[13] I
SS4END[14] I
SS4END[15] I
SS4END[1] I
SS4END[2] I
SS4END[3] I
SS4END[4] I
SS4END[5] I
SS4END[6] I
SS4END[7] I
SS4END[8] I
SS4END[9] I
UserCLK I
UserCLKo O
VALUE_top0 O
VALUE_top1 O
VALUE_top2 O
VALUE_top3 O
VALUE_top4 O
VALUE_top5 O
VALUE_top6 O
VALUE_top7 O

*D_NET *1 0.00243378
*CONN
*P Co O
*I *936:LO O *D sky130_fd_sc_hd__conb_1
*CAP
1 Co 0.000861659
2 *936:LO 3.83684e-05
3 *1:8 0.000900028
4 Co NN4BEG[15] 0.00027577
5 Co *1364:A 9.06813e-05
6 Co *147:10 1.27408e-05
7 Co *158:13 0.00019783
8 Co *370:40 0
9 Co *440:18 0
10 *1:8 *440:18 5.67058e-05
*RES
1 *936:LO *1:8 38.6214 
2 *1:8 Co 16.4471 
*END

*D_NET *2 0.00228149
*CONN
*P FrameData[0] I
*I *1218:A I *D sky130_fd_sc_hd__buf_1
*CAP
1 FrameData[0] 0.000743057
2 *1218:A 0
3 *2:15 0.000743057
4 *2:15 VALUE_top0 0.000377739
5 *2:15 *13:15 0.000107978
6 *2:15 *24:13 5.5403e-05
7 *2:15 *27:13 9.84851e-05
8 *2:15 *28:15 0
9 *2:15 *29:13 0
10 *2:15 *212:8 0.000155769
11 *2:15 *404:10 0
*RES
1 FrameData[0] *2:15 35.3894 
2 *2:15 *1218:A 23 
*END

*D_NET *3 0.00155076
*CONN
*P FrameData[10] I
*I *1229:A I *D sky130_fd_sc_hd__buf_1
*CAP
1 FrameData[10] 0.000418074
2 *1229:A 0
3 *3:15 0.000418074
4 *3:15 *4:13 0.000530253
5 *3:15 *5:15 1.05155e-05
6 *3:15 *32:15 6.92538e-05
7 *3:15 *33:13 0.00010459
8 *3:15 *404:10 0
*RES
1 FrameData[10] *3:15 30.7995 
2 *3:15 *1229:A 23 
*END

*D_NET *4 0.00121937
*CONN
*P FrameData[11] I
*I *1240:A I *D sky130_fd_sc_hd__buf_1
*CAP
1 FrameData[11] 0.000238831
2 *1240:A 0
3 *4:13 0.000238831
4 *4:13 *5:15 0.000211457
5 *4:13 *6:13 0
6 *4:13 *33:13 0
7 *3:15 *4:13 0.000530253
*RES