* NGSPICE file created from W_IO.ext - technology: sky130A

* Black-box entry subcircuit for sky130_fd_sc_hd__decap_8 abstract view
.subckt sky130_fd_sc_hd__decap_8 VGND VNB VPB VPWR
.ends

* Black-box entry subcircuit for sky130_fd_sc_hd__clkbuf_1 abstract view
.subckt sky130_fd_sc_hd__clkbuf_1 A VGND VNB VPB VPWR X
.ends

* Black-box entry subcircuit for sky130_fd_sc_hd__decap_6 abstract view
.subckt sky130_fd_sc_hd__decap_6 VGND VNB VPB VPWR
.ends

* Black-box entry subcircuit for sky130_fd_sc_hd__tapvpwrvgnd_1 abstract view
.subckt sky130_fd_sc_hd__tapvpwrvgnd_1 VGND VPWR
.ends

* Black-box entry subcircuit for sky130_fd_sc_hd__clkbuf_2 abstract view
.subckt sky130_fd_sc_hd__clkbuf_2 A VGND VNB VPB VPWR X
.ends

* Black-box entry subcircuit for sky130_fd_sc_hd__decap_3 abstract view
.subckt sky130_fd_sc_hd__decap_3 VGND VNB VPB VPWR
.ends

* Black-box entry subcircuit for sky130_fd_sc_hd__mux4_1 abstract view
.subckt sky130_fd_sc_hd__mux4_1 A0 A1 A2 A3 S0 S1 VGND VNB VPB VPWR X
.ends

* Black-box entry subcircuit for sky130_fd_sc_hd__dlxtp_1 abstract view
.subckt sky130_fd_sc_hd__dlxtp_1 D GATE VGND VNB VPB VPWR Q
.ends

* Black-box entry subcircuit for sky130_fd_sc_hd__fill_2 abstract view
.subckt sky130_fd_sc_hd__fill_2 VGND VNB VPB VPWR
.ends

* Black-box entry subcircuit for sky130_ef_sc_hd__decap_12 abstract view
.subckt sky130_ef_sc_hd__decap_12 VPWR VGND VPB VNB
.ends

* Black-box entry subcircuit for sky130_fd_sc_hd__nand2_1 abstract view
.subckt sky130_fd_sc_hd__nand2_1 A B VGND VNB VPB VPWR Y
.ends

* Black-box entry subcircuit for sky130_fd_sc_hd__a22o_1 abstract view
.subckt sky130_fd_sc_hd__a22o_1 A1 A2 B1 B2 VGND VNB VPB VPWR X
.ends

* Black-box entry subcircuit for sky130_fd_sc_hd__fill_1 abstract view
.subckt sky130_fd_sc_hd__fill_1 VGND VNB VPB VPWR
.ends

* Black-box entry subcircuit for sky130_fd_sc_hd__diode_2 abstract view
.subckt sky130_fd_sc_hd__diode_2 DIODE VGND VNB VPB VPWR
.ends

* Black-box entry subcircuit for sky130_fd_sc_hd__buf_2 abstract view
.subckt sky130_fd_sc_hd__buf_2 A VGND VNB VPB VPWR X
.ends

* Black-box entry subcircuit for sky130_fd_sc_hd__decap_4 abstract view
.subckt sky130_fd_sc_hd__decap_4 VGND VNB VPB VPWR
.ends

* Black-box entry subcircuit for sky130_fd_sc_hd__o21ai_1 abstract view
.subckt sky130_fd_sc_hd__o21ai_1 A1 A2 B1 VGND VNB VPB VPWR Y
.ends

* Black-box entry subcircuit for sky130_fd_sc_hd__mux2_1 abstract view
.subckt sky130_fd_sc_hd__mux2_1 A0 A1 S VGND VNB VPB VPWR X
.ends

* Black-box entry subcircuit for sky130_fd_sc_hd__or3b_1 abstract view
.subckt sky130_fd_sc_hd__or3b_1 A B C_N VGND VNB VPB VPWR X
.ends

* Black-box entry subcircuit for sky130_fd_sc_hd__buf_1 abstract view
.subckt sky130_fd_sc_hd__buf_1 A VGND VNB VPB VPWR X
.ends

* Black-box entry subcircuit for sky130_fd_sc_hd__a211oi_1 abstract view
.subckt sky130_fd_sc_hd__a211oi_1 A1 A2 B1 C1 VGND VNB VPB VPWR Y
.ends

* Black-box entry subcircuit for sky130_fd_sc_hd__and3b_1 abstract view
.subckt sky130_fd_sc_hd__and3b_1 A_N B C VGND VNB VPB VPWR X
.ends

* Black-box entry subcircuit for sky130_fd_sc_hd__o21a_1 abstract view
.subckt sky130_fd_sc_hd__o21a_1 A1 A2 B1 VGND VNB VPB VPWR X
.ends

* Black-box entry subcircuit for sky130_fd_sc_hd__clkbuf_16 abstract view
.subckt sky130_fd_sc_hd__clkbuf_16 A VGND VNB VPB VPWR X
.ends

* Black-box entry subcircuit for sky130_fd_sc_hd__dfxtp_1 abstract view
.subckt sky130_fd_sc_hd__dfxtp_1 CLK D VGND VNB VPB VPWR Q
.ends

* Black-box entry subcircuit for sky130_fd_sc_hd__dlymetal6s2s_1 abstract view
.subckt sky130_fd_sc_hd__dlymetal6s2s_1 A VGND VNB VPB VPWR X
.ends

* Black-box entry subcircuit for sky130_fd_sc_hd__a41o_1 abstract view
.subckt sky130_fd_sc_hd__a41o_1 A1 A2 A3 A4 B1 VGND VNB VPB VPWR X
.ends

* Black-box entry subcircuit for sky130_fd_sc_hd__or2_1 abstract view
.subckt sky130_fd_sc_hd__or2_1 A B VGND VNB VPB VPWR X
.ends

* Black-box entry subcircuit for sky130_fd_sc_hd__inv_1 abstract view
.subckt sky130_fd_sc_hd__inv_1 A VGND VNB VPB VPWR Y
.ends

* Black-box entry subcircuit for sky130_fd_sc_hd__inv_2 abstract view
.subckt sky130_fd_sc_hd__inv_2 A VGND VNB VPB VPWR Y
.ends

.subckt W_IO A_I_top A_O_top A_T_top A_config_C_bit0 A_config_C_bit1 A_config_C_bit2
+ A_config_C_bit3 B_I_top B_O_top B_T_top B_config_C_bit0 B_config_C_bit1 B_config_C_bit2
+ B_config_C_bit3 E1BEG[0] E1BEG[1] E1BEG[2] E1BEG[3] E2BEG[0] E2BEG[1] E2BEG[2] E2BEG[3]
+ E2BEG[4] E2BEG[5] E2BEG[6] E2BEG[7] E2BEGb[0] E2BEGb[1] E2BEGb[2] E2BEGb[3] E2BEGb[4]
+ E2BEGb[5] E2BEGb[6] E2BEGb[7] E6BEG[0] E6BEG[10] E6BEG[11] E6BEG[1] E6BEG[2] E6BEG[3]
+ E6BEG[4] E6BEG[5] E6BEG[6] E6BEG[7] E6BEG[8] E6BEG[9] EE4BEG[0] EE4BEG[10] EE4BEG[11]
+ EE4BEG[12] EE4BEG[13] EE4BEG[14] EE4BEG[15] EE4BEG[1] EE4BEG[2] EE4BEG[3] EE4BEG[4]
+ EE4BEG[5] EE4BEG[6] EE4BEG[7] EE4BEG[8] EE4BEG[9] FrameData[0] FrameData[10] FrameData[11]
+ FrameData[12] FrameData[13] FrameData[14] FrameData[15] FrameData[16] FrameData[17]
+ FrameData[18] FrameData[19] FrameData[1] FrameData[20] FrameData[21] FrameData[22]
+ FrameData[23] FrameData[24] FrameData[25] FrameData[26] FrameData[27] FrameData[28]
+ FrameData[29] FrameData[2] FrameData[30] FrameData[31] FrameData[3] FrameData[4]
+ FrameData[5] FrameData[6] FrameData[7] FrameData[8] FrameData[9] FrameData_O[0]
+ FrameData_O[10] FrameData_O[11] FrameData_O[12] FrameData_O[13] FrameData_O[14]
+ FrameData_O[15] FrameData_O[16] FrameData_O[17] FrameData_O[18] FrameData_O[19]
+ FrameData_O[1] FrameData_O[20] FrameData_O[21] FrameData_O[22] FrameData_O[23] FrameData_O[24]
+ FrameData_O[25] FrameData_O[26] FrameData_O[27] FrameData_O[28] FrameData_O[29]
+ FrameData_O[2] FrameData_O[30] FrameData_O[31] FrameData_O[3] FrameData_O[4] FrameData_O[5]
+ FrameData_O[6] FrameData_O[7] FrameData_O[8] FrameData_O[9] FrameStrobe[0] FrameStrobe[10]
+ FrameStrobe[11] FrameStrobe[12] FrameStrobe[13] FrameStrobe[14] FrameStrobe[15]
+ FrameStrobe[16] FrameStrobe[17] FrameStrobe[18] FrameStrobe[19] FrameStrobe[1] FrameStrobe[2]
+ FrameStrobe[3] FrameStrobe[4] FrameStrobe[5] FrameStrobe[6] FrameStrobe[7] FrameStrobe[8]
+ FrameStrobe[9] FrameStrobe_O[0] FrameStrobe_O[10] FrameStrobe_O[11] FrameStrobe_O[12]
+ FrameStrobe_O[13] FrameStrobe_O[14] FrameStrobe_O[15] FrameStrobe_O[16] FrameStrobe_O[17]
+ FrameStrobe_O[18] FrameStrobe_O[19] FrameStrobe_O[1] FrameStrobe_O[2] FrameStrobe_O[3]
+ FrameStrobe_O[4] FrameStrobe_O[5] FrameStrobe_O[6] FrameStrobe_O[7] FrameStrobe_O[8]
+ FrameStrobe_O[9] UserCLK UserCLKo VGND VPWR W1END[0] W1END[1] W1END[2] W1END[3]
+ W2END[0] W2END[1] W2END[2] W2END[3] W2END[4] W2END[5] W2END[6] W2END[7] W2MID[0]
+ W2MID[1] W2MID[2] W2MID[3] W2MID[4] W2MID[5] W2MID[6] W2MID[7] W6END[0] W6END[10]
+ W6END[11] W6END[1] W6END[2] W6END[3] W6END[4] W6END[5] W6END[6] W6END[7] W6END[8]
+ W6END[9] WW4END[0] WW4END[10] WW4END[11] WW4END[12] WW4END[13] WW4END[14] WW4END[15]
+ WW4END[1] WW4END[2] WW4END[3] WW4END[4] WW4END[5] WW4END[6] WW4END[7] WW4END[8]
+ WW4END[9]
XFILLER_36_19 VGND VGND VPWR VPWR sky130_fd_sc_hd__decap_8
X_294_ FrameStrobe[7] VGND VGND VPWR VPWR net208 sky130_fd_sc_hd__clkbuf_1
XFILLER_12_65 VGND VGND VPWR VPWR sky130_fd_sc_hd__decap_6
XTAP_TAPCELL_ROW_34_201 VGND VPWR sky130_fd_sc_hd__tapvpwrvgnd_1
X_277_ net17 VGND VGND VPWR VPWR net173 sky130_fd_sc_hd__clkbuf_2
XPHY_EDGE_ROW_20_Left_94 VGND VGND VPWR VPWR sky130_fd_sc_hd__decap_3
X_062_ net95 net88 net79 net2 Inst_W_IO_ConfigMem.Inst_frame0_bit0.Q Inst_W_IO_ConfigMem.Inst_frame0_bit1.Q
+ VGND VGND VPWR VPWR Inst_W_IO_switch_matrix.E6BEG3 sky130_fd_sc_hd__mux4_1
X_131_ net24 net45 VGND VGND VPWR VPWR Inst_W_IO_ConfigMem.Inst_frame3_bit29.Q sky130_fd_sc_hd__dlxtp_1
XFILLER_23_53 VGND VGND VPWR VPWR sky130_fd_sc_hd__decap_3
X_200_ net25 net58 VGND VGND VPWR VPWR Inst_W_IO_ConfigMem.Inst_frame0_bit2.Q sky130_fd_sc_hd__dlxtp_1
XFILLER_64_82 VGND VGND VPWR VPWR sky130_fd_sc_hd__fill_2
X_329_ Inst_W_IO_switch_matrix.E6BEG1 VGND VGND VPWR VPWR net134 sky130_fd_sc_hd__clkbuf_1
XFILLER_0_57 VPWR VGND VPWR VGND sky130_ef_sc_hd__decap_12
XFILLER_69_27 VPWR VGND VPWR VGND sky130_ef_sc_hd__decap_12
XFILLER_60_29 VGND VGND VPWR VPWR sky130_fd_sc_hd__decap_8
XFILLER_59_60 VGND VGND VPWR VPWR sky130_fd_sc_hd__decap_3
XFILLER_34_85 VGND VGND VPWR VPWR sky130_fd_sc_hd__fill_2
X_114_ net59 Inst_W_IO_ConfigMem.Inst_frame0_bit30.Q VGND VGND VPWR VPWR _031_ sky130_fd_sc_hd__nand2_1
X_045_ _007_ _009_ _012_ _001_ VGND VGND VPWR VPWR net105 sky130_fd_sc_hd__a22o_1
XFILLER_22_7 VGND VGND VPWR VPWR sky130_fd_sc_hd__fill_1
XPHY_EDGE_ROW_51_Left_125 VGND VGND VPWR VPWR sky130_fd_sc_hd__decap_3
XPHY_EDGE_ROW_42_Left_116 VGND VGND VPWR VPWR sky130_fd_sc_hd__decap_3
XPHY_EDGE_ROW_33_Left_107 VGND VGND VPWR VPWR sky130_fd_sc_hd__decap_3
XPHY_EDGE_ROW_60_Left_134 VGND VGND VPWR VPWR sky130_fd_sc_hd__decap_3
XANTENNA_5 net186 VGND VGND VPWR VPWR sky130_fd_sc_hd__diode_2
Xoutput97 net112 VGND VGND VPWR VPWR E1BEG[1] sky130_fd_sc_hd__buf_2
Xoutput86 net101 VGND VGND VPWR VPWR A_config_C_bit0 sky130_fd_sc_hd__buf_2
X_293_ FrameStrobe[6] VGND VGND VPWR VPWR net207 sky130_fd_sc_hd__clkbuf_1
XFILLER_67_60 VPWR VGND VPWR VGND sky130_ef_sc_hd__decap_12
XTAP_TAPCELL_ROW_55_232 VGND VPWR sky130_fd_sc_hd__tapvpwrvgnd_1
XFILLER_42_85 VGND VGND VPWR VPWR sky130_fd_sc_hd__fill_2
XFILLER_42_52 VGND VGND VPWR VPWR sky130_fd_sc_hd__decap_4
XTAP_TAPCELL_ROW_23_184 VGND VPWR sky130_fd_sc_hd__tapvpwrvgnd_1
XFILLER_3_57 VPWR VGND VPWR VGND sky130_ef_sc_hd__decap_12
XFILLER_37_52 VGND VGND VPWR VPWR sky130_fd_sc_hd__fill_1
XFILLER_37_30 VGND VGND VPWR VPWR sky130_fd_sc_hd__decap_4
XFILLER_45_6 VGND VGND VPWR VPWR sky130_fd_sc_hd__fill_2
X_276_ net16 VGND VGND VPWR VPWR net172 sky130_fd_sc_hd__clkbuf_2
XFILLER_58_18 VGND VGND VPWR VPWR sky130_fd_sc_hd__decap_6
X_130_ net23 net45 VGND VGND VPWR VPWR Inst_W_IO_ConfigMem.Inst_frame3_bit28.Q sky130_fd_sc_hd__dlxtp_1
XFILLER_23_21 VPWR VGND VPWR VGND sky130_ef_sc_hd__decap_12
XPHY_EDGE_ROW_12_Right_12 VGND VGND VPWR VPWR sky130_fd_sc_hd__decap_3
XPHY_EDGE_ROW_21_Right_21 VGND VGND VPWR VPWR sky130_fd_sc_hd__decap_3
X_328_ Inst_W_IO_switch_matrix.E6BEG0 VGND VGND VPWR VPWR net131 sky130_fd_sc_hd__clkbuf_1
XPHY_EDGE_ROW_30_Right_30 VGND VGND VPWR VPWR sky130_fd_sc_hd__decap_3
XFILLER_0_69 VPWR VGND VPWR VGND sky130_ef_sc_hd__decap_12
XFILLER_0_25 VGND VGND VPWR VPWR sky130_fd_sc_hd__decap_3
X_259_ net29 VGND VGND VPWR VPWR net185 sky130_fd_sc_hd__clkbuf_2
X_061_ net38 net92 net76 net1 Inst_W_IO_ConfigMem.Inst_frame0_bit2.Q Inst_W_IO_ConfigMem.Inst_frame0_bit3.Q
+ VGND VGND VPWR VPWR Inst_W_IO_switch_matrix.E6BEG4 sky130_fd_sc_hd__mux4_1
XFILLER_69_39 VPWR VGND VPWR VGND sky130_ef_sc_hd__decap_12
XFILLER_43_3 VGND VGND VPWR VPWR sky130_fd_sc_hd__fill_2
X_113_ net61 Inst_W_IO_ConfigMem.Inst_frame0_bit30.Q Inst_W_IO_ConfigMem.Inst_frame0_bit31.Q
+ VGND VGND VPWR VPWR _030_ sky130_fd_sc_hd__o21ai_1
X_044_ _010_ _011_ Inst_W_IO_ConfigMem.Inst_frame0_bit27.Q VGND VGND VPWR VPWR _012_
+ sky130_fd_sc_hd__mux2_1
XFILLER_55_19 VGND VGND VPWR VPWR sky130_fd_sc_hd__decap_6
XFILLER_20_11 VPWR VGND VPWR VGND sky130_ef_sc_hd__decap_12
XANTENNA_6 FrameStrobe[11] VGND VGND VPWR VPWR sky130_fd_sc_hd__diode_2
XFILLER_6_46 VGND VGND VPWR VPWR sky130_fd_sc_hd__fill_1
XFILLER_66_29 VGND VGND VPWR VPWR sky130_fd_sc_hd__decap_4
XPHY_EDGE_ROW_6_Right_6 VGND VGND VPWR VPWR sky130_fd_sc_hd__decap_3
XFILLER_15_22 VGND VGND VPWR VPWR sky130_fd_sc_hd__decap_4
XFILLER_15_55 VGND VGND VPWR VPWR sky130_fd_sc_hd__fill_1
XPHY_EDGE_ROW_59_Right_59 VGND VGND VPWR VPWR sky130_fd_sc_hd__decap_3
XFILLER_31_43 VPWR VGND VPWR VGND sky130_ef_sc_hd__decap_12
Xoutput98 net113 VGND VGND VPWR VPWR E1BEG[2] sky130_fd_sc_hd__buf_2
Xoutput87 net102 VGND VGND VPWR VPWR A_config_C_bit1 sky130_fd_sc_hd__buf_2
XPHY_EDGE_ROW_68_Right_68 VGND VGND VPWR VPWR sky130_fd_sc_hd__decap_3
X_292_ FrameStrobe[5] VGND VGND VPWR VPWR net206 sky130_fd_sc_hd__clkbuf_1
XFILLER_73_3 VGND VGND VPWR VPWR sky130_fd_sc_hd__fill_1
XFILLER_67_72 VGND VGND VPWR VPWR sky130_fd_sc_hd__decap_8
XFILLER_3_69 VPWR VGND VPWR VGND sky130_ef_sc_hd__decap_12
XTAP_TAPCELL_ROW_8_161 VGND VPWR sky130_fd_sc_hd__tapvpwrvgnd_1
XFILLER_63_19 VPWR VGND VPWR VGND sky130_ef_sc_hd__decap_12
XFILLER_53_52 VGND VGND VPWR VPWR sky130_fd_sc_hd__decap_4
XTAP_TAPCELL_ROW_43_214 VGND VPWR sky130_fd_sc_hd__tapvpwrvgnd_1
X_275_ net15 VGND VGND VPWR VPWR net171 sky130_fd_sc_hd__clkbuf_2
XTAP_TAPCELL_ROW_11_166 VGND VPWR sky130_fd_sc_hd__tapvpwrvgnd_1
XFILLER_48_85 VGND VGND VPWR VPWR sky130_fd_sc_hd__fill_2
X_060_ net39 net91 net75 net2 Inst_W_IO_ConfigMem.Inst_frame0_bit4.Q Inst_W_IO_ConfigMem.Inst_frame0_bit5.Q
+ VGND VGND VPWR VPWR Inst_W_IO_switch_matrix.E6BEG5 sky130_fd_sc_hd__mux4_1
XFILLER_23_33 VPWR VGND VPWR VGND sky130_ef_sc_hd__decap_12
XFILLER_3_3 VPWR VGND VPWR VGND sky130_ef_sc_hd__decap_12
X_327_ Inst_W_IO_switch_matrix.E2BEGb7 VGND VGND VPWR VPWR net130 sky130_fd_sc_hd__clkbuf_1
XFILLER_36_3 VGND VGND VPWR VPWR sky130_fd_sc_hd__decap_4
X_189_ net18 net51 VGND VGND VPWR VPWR Inst_W_IO_ConfigMem.Inst_frame1_bit23.Q sky130_fd_sc_hd__dlxtp_1
XFILLER_9_57 VGND VGND VPWR VPWR sky130_fd_sc_hd__fill_1
X_258_ net28 VGND VGND VPWR VPWR net184 sky130_fd_sc_hd__clkbuf_2
X_112_ Inst_W_IO_ConfigMem.Inst_frame0_bit30.Q Inst_W_IO_ConfigMem.Inst_frame0_bit31.Q
+ net70 VGND VGND VPWR VPWR _029_ sky130_fd_sc_hd__or3b_1
XFILLER_18_22 VGND VGND VPWR VPWR sky130_fd_sc_hd__decap_6
X_043_ net67 net68 net69 net70 Inst_W_IO_ConfigMem.Inst_frame0_bit25.Q Inst_W_IO_ConfigMem.Inst_frame0_bit26.Q
+ VGND VGND VPWR VPWR _011_ sky130_fd_sc_hd__mux4_1
XFILLER_71_19 VPWR VGND VPWR VGND sky130_ef_sc_hd__decap_12
XFILLER_20_23 VGND VGND VPWR VPWR sky130_fd_sc_hd__decap_4
XANTENNA_7 FrameStrobe[12] VGND VGND VPWR VPWR sky130_fd_sc_hd__diode_2
XFILLER_45_64 VPWR VGND VPWR VGND sky130_ef_sc_hd__decap_12
XFILLER_45_53 VGND VGND VPWR VPWR sky130_fd_sc_hd__decap_3
XFILLER_56_41 VGND VGND VPWR VPWR sky130_fd_sc_hd__decap_8
XFILLER_31_55 VGND VGND VPWR VPWR sky130_fd_sc_hd__fill_1
Xoutput99 net114 VGND VGND VPWR VPWR E1BEG[3] sky130_fd_sc_hd__buf_2
Xoutput88 net103 VGND VGND VPWR VPWR A_config_C_bit2 sky130_fd_sc_hd__buf_2
XTAP_TAPCELL_ROW_64_245 VGND VPWR sky130_fd_sc_hd__tapvpwrvgnd_1
X_291_ FrameStrobe[4] VGND VGND VPWR VPWR net205 sky130_fd_sc_hd__clkbuf_1
XFILLER_42_10 VPWR VGND VPWR VGND sky130_ef_sc_hd__decap_12
XTAP_TAPCELL_ROW_32_197 VGND VPWR sky130_fd_sc_hd__tapvpwrvgnd_1
XPHY_EDGE_ROW_57_Left_131 VGND VGND VPWR VPWR sky130_fd_sc_hd__decap_3
XPHY_EDGE_ROW_48_Left_122 VGND VGND VPWR VPWR sky130_fd_sc_hd__decap_3
XPHY_EDGE_ROW_39_Left_113 VGND VGND VPWR VPWR sky130_fd_sc_hd__decap_3
XFILLER_3_15 VPWR VGND VPWR VGND sky130_ef_sc_hd__decap_12
XTAP_TAPCELL_ROW_8_162 VGND VPWR sky130_fd_sc_hd__tapvpwrvgnd_1
XPHY_EDGE_ROW_66_Left_140 VGND VGND VPWR VPWR sky130_fd_sc_hd__decap_3
XFILLER_5_7 VPWR VGND VPWR VGND sky130_ef_sc_hd__decap_12
X_274_ net13 VGND VGND VPWR VPWR net169 sky130_fd_sc_hd__clkbuf_1
XFILLER_48_53 VGND VGND VPWR VPWR sky130_fd_sc_hd__decap_4
XFILLER_23_45 VGND VGND VPWR VPWR sky130_fd_sc_hd__decap_8
XFILLER_64_85 VGND VGND VPWR VPWR sky130_fd_sc_hd__fill_2
XFILLER_50_6 VGND VGND VPWR VPWR sky130_fd_sc_hd__fill_1
XPHY_EDGE_ROW_24_Left_98 VGND VGND VPWR VPWR sky130_fd_sc_hd__decap_3
X_257_ net25 VGND VGND VPWR VPWR net181 sky130_fd_sc_hd__clkbuf_2
X_188_ net17 net51 VGND VGND VPWR VPWR Inst_W_IO_ConfigMem.Inst_frame1_bit22.Q sky130_fd_sc_hd__dlxtp_1
X_326_ Inst_W_IO_switch_matrix.E2BEGb6 VGND VGND VPWR VPWR net129 sky130_fd_sc_hd__buf_1
XFILLER_34_44 VPWR VGND VPWR VGND sky130_ef_sc_hd__decap_12
XFILLER_50_10 VPWR VGND VPWR VGND sky130_ef_sc_hd__decap_12
X_309_ Inst_W_IO_switch_matrix.E1BEG1 VGND VGND VPWR VPWR net112 sky130_fd_sc_hd__clkbuf_1
X_111_ _005_ _026_ _027_ Inst_W_IO_ConfigMem.Inst_frame0_bit29.Q VGND VGND VPWR VPWR
+ _028_ sky130_fd_sc_hd__a211oi_1
X_042_ net63 net64 net65 net66 Inst_W_IO_ConfigMem.Inst_frame0_bit25.Q Inst_W_IO_ConfigMem.Inst_frame0_bit26.Q
+ VGND VGND VPWR VPWR _010_ sky130_fd_sc_hd__mux4_1
XFILLER_1_81 VPWR VGND VPWR VGND sky130_ef_sc_hd__decap_12
XANTENNA_8 FrameStrobe[13] VGND VGND VPWR VPWR sky130_fd_sc_hd__diode_2
XFILLER_45_76 VGND VGND VPWR VPWR sky130_fd_sc_hd__decap_4
XFILLER_29_55 VGND VGND VPWR VPWR sky130_fd_sc_hd__fill_1
XFILLER_29_22 VGND VGND VPWR VPWR sky130_fd_sc_hd__decap_3
XFILLER_6_15 VGND VGND VPWR VPWR sky130_fd_sc_hd__fill_1
XPHY_EDGE_ROW_11_Left_85 VGND VGND VPWR VPWR sky130_fd_sc_hd__decap_3
XFILLER_15_57 VGND VGND VPWR VPWR sky130_fd_sc_hd__fill_2
Xoutput89 net104 VGND VGND VPWR VPWR A_config_C_bit3 sky130_fd_sc_hd__buf_2
XFILLER_72_85 VGND VGND VPWR VPWR sky130_fd_sc_hd__fill_2
XFILLER_72_41 VPWR VGND VPWR VGND sky130_ef_sc_hd__decap_12
XFILLER_68_7 VPWR VGND VPWR VGND sky130_ef_sc_hd__decap_12
XTAP_TAPCELL_ROW_64_246 VGND VPWR sky130_fd_sc_hd__tapvpwrvgnd_1
XTAP_TAPCELL_ROW_32_198 VGND VPWR sky130_fd_sc_hd__tapvpwrvgnd_1
X_290_ net46 VGND VGND VPWR VPWR net204 sky130_fd_sc_hd__buf_1
XFILLER_42_22 VGND VGND VPWR VPWR sky130_fd_sc_hd__decap_6
XFILLER_3_27 VPWR VGND VPWR VGND sky130_ef_sc_hd__decap_12
XTAP_TAPCELL_ROW_52_227 VGND VPWR sky130_fd_sc_hd__tapvpwrvgnd_1
X_273_ net12 VGND VGND VPWR VPWR net168 sky130_fd_sc_hd__clkbuf_1
XFILLER_37_77 VGND VGND VPWR VPWR sky130_fd_sc_hd__fill_2
XTAP_TAPCELL_ROW_20_179 VGND VPWR sky130_fd_sc_hd__tapvpwrvgnd_1
XFILLER_48_43 VGND VGND VPWR VPWR sky130_fd_sc_hd__fill_2
XFILLER_23_57 VGND VGND VPWR VPWR sky130_fd_sc_hd__fill_1
X_256_ net14 VGND VGND VPWR VPWR net170 sky130_fd_sc_hd__clkbuf_1
X_187_ net16 net52 VGND VGND VPWR VPWR Inst_W_IO_ConfigMem.Inst_frame1_bit21.Q sky130_fd_sc_hd__dlxtp_1
X_325_ Inst_W_IO_switch_matrix.E2BEGb5 VGND VGND VPWR VPWR net128 sky130_fd_sc_hd__clkbuf_1
XFILLER_0_17 VGND VGND VPWR VPWR sky130_fd_sc_hd__decap_8
XFILLER_50_22 VGND VGND VPWR VPWR sky130_fd_sc_hd__decap_6
XFILLER_34_56 VGND VGND VPWR VPWR sky130_fd_sc_hd__decap_6
X_110_ Inst_W_IO_ConfigMem.Inst_frame0_bit30.Q Inst_W_IO_ConfigMem.Inst_frame0_bit31.Q
+ net60 VGND VGND VPWR VPWR _027_ sky130_fd_sc_hd__and3b_1
X_041_ _000_ _008_ Inst_W_IO_ConfigMem.Inst_frame0_bit28.Q VGND VGND VPWR VPWR _009_
+ sky130_fd_sc_hd__o21a_1
X_239_ Inst_W_IO_switch_matrix.EE4BEG0 VGND VGND VPWR VPWR net143 sky130_fd_sc_hd__clkbuf_1
X_308_ Inst_W_IO_switch_matrix.E1BEG0 VGND VGND VPWR VPWR net111 sky130_fd_sc_hd__buf_1
XFILLER_1_93 VGND VGND VPWR VPWR sky130_fd_sc_hd__fill_2
XFILLER_61_10 VGND VGND VPWR VPWR sky130_fd_sc_hd__fill_2
XANTENNA_9 FrameStrobe[15] VGND VGND VPWR VPWR sky130_fd_sc_hd__diode_2
XTAP_TAPCELL_ROW_29_193 VGND VPWR sky130_fd_sc_hd__tapvpwrvgnd_1
XFILLER_6_38 VGND VGND VPWR VPWR sky130_fd_sc_hd__decap_8
XFILLER_13_7 VGND VGND VPWR VPWR sky130_fd_sc_hd__decap_8
XFILLER_15_47 VGND VGND VPWR VPWR sky130_fd_sc_hd__decap_8
XFILLER_72_53 VGND VGND VPWR VPWR sky130_fd_sc_hd__fill_2
XPHY_EDGE_ROW_28_Right_28 VGND VGND VPWR VPWR sky130_fd_sc_hd__decap_3
XPHY_EDGE_ROW_19_Right_19 VGND VGND VPWR VPWR sky130_fd_sc_hd__decap_3
XFILLER_21_90 VGND VGND VPWR VPWR sky130_fd_sc_hd__fill_2
XPHY_EDGE_ROW_55_Right_55 VGND VGND VPWR VPWR sky130_fd_sc_hd__decap_3
XPHY_EDGE_ROW_46_Right_46 VGND VGND VPWR VPWR sky130_fd_sc_hd__decap_3
XPHY_EDGE_ROW_37_Right_37 VGND VGND VPWR VPWR sky130_fd_sc_hd__decap_3
XPHY_EDGE_ROW_73_Right_73 VGND VGND VPWR VPWR sky130_fd_sc_hd__decap_3
XFILLER_67_53 VGND VGND VPWR VPWR sky130_fd_sc_hd__decap_3
XPHY_EDGE_ROW_64_Right_64 VGND VGND VPWR VPWR sky130_fd_sc_hd__decap_3
XFILLER_42_56 VGND VGND VPWR VPWR sky130_fd_sc_hd__fill_1
XFILLER_3_39 VPWR VGND VPWR VGND sky130_ef_sc_hd__decap_12
XTAP_TAPCELL_ROW_52_228 VGND VPWR sky130_fd_sc_hd__tapvpwrvgnd_1
X_272_ net11 VGND VGND VPWR VPWR net167 sky130_fd_sc_hd__clkbuf_1
XTAP_TAPCELL_ROW_40_209 VGND VPWR sky130_fd_sc_hd__tapvpwrvgnd_1
XFILLER_4_93 VGND VGND VPWR VPWR sky130_fd_sc_hd__fill_2
XFILLER_64_10 VGND VGND VPWR VPWR sky130_fd_sc_hd__fill_1
X_255_ net3 VGND VGND VPWR VPWR net159 sky130_fd_sc_hd__clkbuf_1
X_186_ net15 net52 VGND VGND VPWR VPWR Inst_W_IO_ConfigMem.Inst_frame1_bit20.Q sky130_fd_sc_hd__dlxtp_1
XFILLER_0_29 VPWR VGND VPWR VGND sky130_ef_sc_hd__decap_12
XFILLER_9_16 VGND VGND VPWR VPWR sky130_fd_sc_hd__fill_1
X_324_ Inst_W_IO_switch_matrix.E2BEGb4 VGND VGND VPWR VPWR net127 sky130_fd_sc_hd__buf_1
XFILLER_34_35 VGND VGND VPWR VPWR sky130_fd_sc_hd__decap_6
XFILLER_34_24 VGND VGND VPWR VPWR sky130_fd_sc_hd__decap_4
XFILLER_1_3 VPWR VGND VPWR VGND sky130_ef_sc_hd__decap_12
X_040_ net59 net60 net61 net62 Inst_W_IO_ConfigMem.Inst_frame0_bit25.Q Inst_W_IO_ConfigMem.Inst_frame0_bit26.Q
+ VGND VGND VPWR VPWR _008_ sky130_fd_sc_hd__mux4_1
X_307_ clknet_1_0__leaf_UserCLK VGND VGND VPWR VPWR net211 sky130_fd_sc_hd__buf_2
X_238_ Inst_W_IO_switch_matrix.E6BEG11 VGND VGND VPWR VPWR net133 sky130_fd_sc_hd__clkbuf_1
X_169_ net28 net51 VGND VGND VPWR VPWR Inst_W_IO_ConfigMem.Inst_frame1_bit3.Q sky130_fd_sc_hd__dlxtp_1
XFILLER_20_59 VGND VGND VPWR VPWR sky130_fd_sc_hd__fill_1
XTAP_TAPCELL_ROW_73_259 VGND VPWR sky130_fd_sc_hd__tapvpwrvgnd_1
XFILLER_31_69 VGND VGND VPWR VPWR sky130_fd_sc_hd__fill_1
XTAP_TAPCELL_ROW_49_223 VGND VPWR sky130_fd_sc_hd__tapvpwrvgnd_1
XTAP_TAPCELL_ROW_17_175 VGND VPWR sky130_fd_sc_hd__tapvpwrvgnd_1
XPHY_EDGE_ROW_26_Left_100 VGND VGND VPWR VPWR sky130_fd_sc_hd__decap_3
XTAP_TAPCELL_ROW_60_240 VGND VPWR sky130_fd_sc_hd__tapvpwrvgnd_1
XFILLER_37_46 VGND VGND VPWR VPWR sky130_fd_sc_hd__decap_6
XTAP_TAPCELL_ROW_5_157 VGND VPWR sky130_fd_sc_hd__tapvpwrvgnd_1
XFILLER_12_27 VGND VGND VPWR VPWR sky130_fd_sc_hd__fill_1
X_271_ net10 VGND VGND VPWR VPWR net166 sky130_fd_sc_hd__clkbuf_1
XFILLER_4_83 VGND VGND VPWR VPWR sky130_fd_sc_hd__fill_1
XFILLER_64_33 VGND VGND VPWR VPWR sky130_fd_sc_hd__fill_1
X_185_ net13 net52 VGND VGND VPWR VPWR Inst_W_IO_ConfigMem.Inst_frame1_bit19.Q sky130_fd_sc_hd__dlxtp_1
X_323_ Inst_W_IO_switch_matrix.E2BEGb3 VGND VGND VPWR VPWR net126 sky130_fd_sc_hd__clkbuf_1
XFILLER_48_78 VGND VGND VPWR VPWR sky130_fd_sc_hd__decap_3
X_254_ Inst_W_IO_switch_matrix.EE4BEG15 VGND VGND VPWR VPWR net149 sky130_fd_sc_hd__clkbuf_1
XFILLER_59_11 VGND VGND VPWR VPWR sky130_fd_sc_hd__decap_8
X_306_ FrameStrobe[19] VGND VGND VPWR VPWR net201 sky130_fd_sc_hd__clkbuf_1
X_099_ net37 net2 Inst_W_IO_ConfigMem.Inst_frame3_bit24.Q VGND VGND VPWR VPWR Inst_W_IO_switch_matrix.E1BEG2
+ sky130_fd_sc_hd__mux2_1
X_237_ Inst_W_IO_switch_matrix.E6BEG10 VGND VGND VPWR VPWR net132 sky130_fd_sc_hd__clkbuf_1
X_168_ net25 net51 VGND VGND VPWR VPWR Inst_W_IO_ConfigMem.Inst_frame1_bit2.Q sky130_fd_sc_hd__dlxtp_1
XFILLER_29_69 VGND VGND VPWR VPWR sky130_fd_sc_hd__fill_1
XFILLER_1_51 VGND VGND VPWR VPWR sky130_fd_sc_hd__decap_4
XFILLER_20_27 VGND VGND VPWR VPWR sky130_fd_sc_hd__fill_1
XFILLER_45_57 VGND VGND VPWR VPWR sky130_fd_sc_hd__decap_4
XFILLER_35_90 VGND VGND VPWR VPWR sky130_fd_sc_hd__fill_1
XPHY_EDGE_ROW_1_Right_1 VGND VGND VPWR VPWR sky130_fd_sc_hd__decap_3
XPHY_EDGE_ROW_15_Left_89 VGND VGND VPWR VPWR sky130_fd_sc_hd__decap_3
XFILLER_73_8 VGND VGND VPWR VPWR sky130_fd_sc_hd__fill_1
XFILLER_67_33 VGND VGND VPWR VPWR sky130_fd_sc_hd__decap_3
XFILLER_66_7 VGND VGND VPWR VPWR sky130_fd_sc_hd__fill_2
XTAP_TAPCELL_ROW_37_205 VGND VPWR sky130_fd_sc_hd__tapvpwrvgnd_1
XFILLER_53_57 VPWR VGND VPWR VGND sky130_ef_sc_hd__decap_12
X_270_ net9 VGND VGND VPWR VPWR net165 sky130_fd_sc_hd__buf_1
XFILLER_37_69 VGND VGND VPWR VPWR sky130_fd_sc_hd__decap_8
XFILLER_4_51 VPWR VGND VPWR VGND sky130_ef_sc_hd__decap_12
XFILLER_48_57 VGND VGND VPWR VPWR sky130_fd_sc_hd__fill_1
XPHY_EDGE_ROW_45_Left_119 VGND VGND VPWR VPWR sky130_fd_sc_hd__decap_3
X_322_ Inst_W_IO_switch_matrix.E2BEGb2 VGND VGND VPWR VPWR net125 sky130_fd_sc_hd__clkbuf_1
XFILLER_9_29 VGND VGND VPWR VPWR sky130_fd_sc_hd__decap_4
XPHY_EDGE_ROW_18_Left_92 VGND VGND VPWR VPWR sky130_fd_sc_hd__decap_3
XPHY_EDGE_ROW_72_Left_146 VGND VGND VPWR VPWR sky130_fd_sc_hd__decap_3
X_184_ net12 net52 VGND VGND VPWR VPWR Inst_W_IO_ConfigMem.Inst_frame1_bit18.Q sky130_fd_sc_hd__dlxtp_1
XPHY_EDGE_ROW_63_Left_137 VGND VGND VPWR VPWR sky130_fd_sc_hd__decap_3
XPHY_EDGE_ROW_54_Left_128 VGND VGND VPWR VPWR sky130_fd_sc_hd__decap_3
Xfanout50 net35 VGND VGND VPWR VPWR net50 sky130_fd_sc_hd__clkbuf_2
X_253_ Inst_W_IO_switch_matrix.EE4BEG14 VGND VGND VPWR VPWR net148 sky130_fd_sc_hd__clkbuf_1
X_305_ FrameStrobe[18] VGND VGND VPWR VPWR net200 sky130_fd_sc_hd__clkbuf_1
X_236_ Inst_W_IO_switch_matrix.E6BEG9 VGND VGND VPWR VPWR net142 sky130_fd_sc_hd__clkbuf_1
X_098_ net36 Inst_B_IO_1_bidirectional_frame_config_pass.Q Inst_W_IO_ConfigMem.Inst_frame3_bit25.Q
+ VGND VGND VPWR VPWR Inst_W_IO_switch_matrix.E1BEG3 sky130_fd_sc_hd__mux2_1
X_167_ net14 net52 VGND VGND VPWR VPWR Inst_W_IO_ConfigMem.Inst_frame1_bit1.Q sky130_fd_sc_hd__dlxtp_1
XFILLER_41_6 VGND VGND VPWR VPWR sky130_fd_sc_hd__decap_8
XPHY_EDGE_ROW_3_Left_77 VGND VGND VPWR VPWR sky130_fd_sc_hd__decap_3
XFILLER_61_68 VGND VGND VPWR VPWR sky130_fd_sc_hd__decap_3
X_219_ net16 net55 VGND VGND VPWR VPWR Inst_W_IO_ConfigMem.Inst_frame0_bit21.Q sky130_fd_sc_hd__dlxtp_1
XTAP_TAPCELL_ROW_58_236 VGND VPWR sky130_fd_sc_hd__tapvpwrvgnd_1
XTAP_TAPCELL_ROW_26_188 VGND VPWR sky130_fd_sc_hd__tapvpwrvgnd_1
XPHY_EDGE_ROW_6_Left_80 VGND VGND VPWR VPWR sky130_fd_sc_hd__decap_3
XFILLER_42_37 VGND VGND VPWR VPWR sky130_fd_sc_hd__decap_3
XFILLER_26_49 VPWR VGND VPWR VGND sky130_ef_sc_hd__decap_12
XFILLER_26_27 VGND VGND VPWR VPWR sky130_fd_sc_hd__fill_1
XPHY_EDGE_ROW_24_Right_24 VGND VGND VPWR VPWR sky130_fd_sc_hd__decap_3
XPHY_EDGE_ROW_15_Right_15 VGND VGND VPWR VPWR sky130_fd_sc_hd__decap_3
XPHY_EDGE_ROW_51_Right_51 VGND VGND VPWR VPWR sky130_fd_sc_hd__decap_3
XPHY_EDGE_ROW_42_Right_42 VGND VGND VPWR VPWR sky130_fd_sc_hd__decap_3
XPHY_EDGE_ROW_33_Right_33 VGND VGND VPWR VPWR sky130_fd_sc_hd__decap_3
XPHY_EDGE_ROW_60_Right_60 VGND VGND VPWR VPWR sky130_fd_sc_hd__decap_3
XFILLER_12_29 VPWR VGND VPWR VGND sky130_ef_sc_hd__decap_12
XFILLER_53_69 VGND VGND VPWR VPWR sky130_fd_sc_hd__fill_2
XFILLER_4_85 VGND VGND VPWR VPWR sky130_fd_sc_hd__decap_8
XFILLER_4_63 VPWR VGND VPWR VGND sky130_ef_sc_hd__decap_12
XFILLER_4_41 VGND VGND VPWR VPWR sky130_fd_sc_hd__decap_6
XTAP_TAPCELL_ROW_1_151 VGND VPWR sky130_fd_sc_hd__tapvpwrvgnd_1
XFILLER_64_46 VGND VGND VPWR VPWR sky130_fd_sc_hd__fill_2
X_183_ net11 net54 VGND VGND VPWR VPWR Inst_W_IO_ConfigMem.Inst_frame1_bit17.Q sky130_fd_sc_hd__dlxtp_1
X_321_ Inst_W_IO_switch_matrix.E2BEGb1 VGND VGND VPWR VPWR net124 sky130_fd_sc_hd__buf_1
X_252_ Inst_W_IO_switch_matrix.EE4BEG13 VGND VGND VPWR VPWR net147 sky130_fd_sc_hd__clkbuf_1
Xfanout51 net54 VGND VGND VPWR VPWR net51 sky130_fd_sc_hd__clkbuf_2
X_304_ FrameStrobe[17] VGND VGND VPWR VPWR net199 sky130_fd_sc_hd__clkbuf_1
XFILLER_50_37 VGND VGND VPWR VPWR sky130_fd_sc_hd__fill_1
X_235_ Inst_W_IO_switch_matrix.E6BEG8 VGND VGND VPWR VPWR net141 sky130_fd_sc_hd__buf_1
X_166_ net3 net52 VGND VGND VPWR VPWR Inst_W_IO_ConfigMem.Inst_frame1_bit0.Q sky130_fd_sc_hd__dlxtp_1
X_097_ net70 net96 net89 net80 Inst_W_IO_ConfigMem.Inst_frame3_bit26.Q Inst_W_IO_ConfigMem.Inst_frame3_bit27.Q
+ VGND VGND VPWR VPWR Inst_W_IO_switch_matrix.E2BEG0 sky130_fd_sc_hd__mux4_1
XFILLER_20_29 VPWR VGND VPWR VGND sky130_ef_sc_hd__decap_12
XFILLER_61_36 VPWR VGND VPWR VGND sky130_ef_sc_hd__decap_12
XFILLER_29_49 VGND VGND VPWR VPWR sky130_fd_sc_hd__decap_6
X_149_ net9 net47 VGND VGND VPWR VPWR Inst_W_IO_ConfigMem.Inst_frame2_bit15.Q sky130_fd_sc_hd__dlxtp_1
X_218_ net15 net55 VGND VGND VPWR VPWR Inst_W_IO_ConfigMem.Inst_frame0_bit20.Q sky130_fd_sc_hd__dlxtp_1
XTAP_TAPCELL_ROW_58_237 VGND VPWR sky130_fd_sc_hd__tapvpwrvgnd_1
XFILLER_72_79 VGND VGND VPWR VPWR sky130_fd_sc_hd__fill_2
XTAP_TAPCELL_ROW_26_189 VGND VPWR sky130_fd_sc_hd__tapvpwrvgnd_1
XTAP_TAPCELL_ROW_46_218 VGND VPWR sky130_fd_sc_hd__tapvpwrvgnd_1
XFILLER_16_94 VGND VGND VPWR VPWR sky130_fd_sc_hd__fill_1
XFILLER_12_19 VGND VGND VPWR VPWR sky130_fd_sc_hd__decap_8
XFILLER_71_7 VPWR VGND VPWR VGND sky130_ef_sc_hd__decap_12
XFILLER_4_75 VGND VGND VPWR VPWR sky130_fd_sc_hd__decap_8
XFILLER_64_25 VGND VGND VPWR VPWR sky130_fd_sc_hd__decap_3
X_251_ Inst_W_IO_switch_matrix.EE4BEG12 VGND VGND VPWR VPWR net146 sky130_fd_sc_hd__buf_1
X_182_ net10 net52 VGND VGND VPWR VPWR Inst_W_IO_ConfigMem.Inst_frame1_bit16.Q sky130_fd_sc_hd__dlxtp_1
Xfanout52 net53 VGND VGND VPWR VPWR net52 sky130_fd_sc_hd__clkbuf_2
X_320_ Inst_W_IO_switch_matrix.E2BEGb0 VGND VGND VPWR VPWR net123 sky130_fd_sc_hd__clkbuf_1
XFILLER_29_9 VGND VGND VPWR VPWR sky130_fd_sc_hd__fill_1
XFILLER_13_84 VGND VGND VPWR VPWR sky130_fd_sc_hd__fill_1
XFILLER_70_90 VGND VGND VPWR VPWR sky130_fd_sc_hd__fill_1
XFILLER_18_29 VGND VGND VPWR VPWR sky130_fd_sc_hd__fill_1
X_303_ FrameStrobe[16] VGND VGND VPWR VPWR net198 sky130_fd_sc_hd__clkbuf_1
X_165_ net27 net50 VGND VGND VPWR VPWR Inst_W_IO_ConfigMem.Inst_frame2_bit31.Q sky130_fd_sc_hd__dlxtp_1
X_234_ Inst_W_IO_switch_matrix.E6BEG7 VGND VGND VPWR VPWR net140 sky130_fd_sc_hd__clkbuf_1
X_096_ net69 net95 net88 net79 Inst_W_IO_ConfigMem.Inst_frame3_bit28.Q Inst_W_IO_ConfigMem.Inst_frame3_bit29.Q
+ VGND VGND VPWR VPWR Inst_W_IO_switch_matrix.E2BEG1 sky130_fd_sc_hd__mux4_1
XFILLER_24_50 VGND VGND VPWR VPWR sky130_fd_sc_hd__fill_1
XFILLER_61_48 VGND VGND VPWR VPWR sky130_fd_sc_hd__decap_8
X_148_ net8 net47 VGND VGND VPWR VPWR Inst_W_IO_ConfigMem.Inst_frame2_bit14.Q sky130_fd_sc_hd__dlxtp_1
X_217_ net13 net55 VGND VGND VPWR VPWR Inst_W_IO_ConfigMem.Inst_frame0_bit19.Q sky130_fd_sc_hd__dlxtp_1
XFILLER_10_41 VGND VGND VPWR VPWR sky130_fd_sc_hd__fill_2
XPHY_EDGE_ROW_69_Left_143 VGND VGND VPWR VPWR sky130_fd_sc_hd__decap_3
X_079_ net74 net78 net76 Inst_A_IO_1_bidirectional_frame_config_pass.Q Inst_W_IO_ConfigMem.Inst_frame2_bit31.Q
+ Inst_W_IO_ConfigMem.Inst_frame2_bit30.Q VGND VGND VPWR VPWR Inst_W_IO_switch_matrix.EE4BEG2
+ sky130_fd_sc_hd__mux4_1
XFILLER_56_26 VGND VGND VPWR VPWR sky130_fd_sc_hd__fill_2
XFILLER_21_40 VGND VGND VPWR VPWR sky130_fd_sc_hd__decap_3
XFILLER_7_31 VGND VGND VPWR VPWR sky130_fd_sc_hd__fill_1
XTAP_TAPCELL_ROW_46_219 VGND VPWR sky130_fd_sc_hd__tapvpwrvgnd_1
XFILLER_26_29 VGND VGND VPWR VPWR sky130_fd_sc_hd__decap_8
XPHY_EDGE_ROW_5_Right_5 VGND VGND VPWR VPWR sky130_fd_sc_hd__decap_3
XTAP_TAPCELL_ROW_54_230 VGND VPWR sky130_fd_sc_hd__tapvpwrvgnd_1