*SPEF "ieee 1481-1999"
*DESIGN "S_term_DSP"
*DATE "17:46:31 Thursday April 03, 2025"
*VENDOR "The OpenROAD Project"
*PROGRAM "OpenROAD"
*VERSION "87af90f72f3f9be1fdfa1d886f0dd8d8b8f34694"
*DESIGN_FLOW "NAME_SCOPE LOCAL" "PIN_CAP NONE"
*DIVIDER /
*DELIMITER :
*BUS_DELIMITER []
*T_UNIT 1 NS
*C_UNIT 1 PF
*R_UNIT 1 OHM
*L_UNIT 1 HENRY

*NAME_MAP
*1 FrameData[0]
*2 FrameData[10]
*3 FrameData[11]
*4 FrameData[12]
*5 FrameData[13]
*6 FrameData[14]
*7 FrameData[15]
*8 FrameData[16]
*9 FrameData[17]
*10 FrameData[18]
*11 FrameData[19]
*12 FrameData[1]
*13 FrameData[20]
*14 FrameData[21]
*15 FrameData[22]
*16 FrameData[23]
*17 FrameData[24]
*18 FrameData[25]
*19 FrameData[26]
*20 FrameData[27]
*21 FrameData[28]
*22 FrameData[29]
*23 FrameData[2]
*24 FrameData[30]
*25 FrameData[31]
*26 FrameData[3]
*27 FrameData[4]
*28 FrameData[5]
*29 FrameData[6]
*30 FrameData[7]
*31 FrameData[8]
*32 FrameData[9]
*33 FrameData_O[0]
*34 FrameData_O[10]
*35 FrameData_O[11]
*36 FrameData_O[12]
*37 FrameData_O[13]
*38 FrameData_O[14]
*39 FrameData_O[15]
*40 FrameData_O[16]
*41 FrameData_O[17]
*42 FrameData_O[18]
*43 FrameData_O[19]
*44 FrameData_O[1]
*45 FrameData_O[20]
*46 FrameData_O[21]
*47 FrameData_O[22]
*48 FrameData_O[23]
*49 FrameData_O[24]
*50 FrameData_O[25]
*51 FrameData_O[26]
*52 FrameData_O[27]
*53 FrameData_O[28]
*54 FrameData_O[29]
*55 FrameData_O[2]
*56 FrameData_O[30]
*57 FrameData_O[31]
*58 FrameData_O[3]
*59 FrameData_O[4]
*60 FrameData_O[5]
*61 FrameData_O[6]
*62 FrameData_O[7]
*63 FrameData_O[8]
*64 FrameData_O[9]
*65 FrameStrobe[0]
*66 FrameStrobe[10]
*67 FrameStrobe[11]
*68 FrameStrobe[12]
*69 FrameStrobe[13]
*70 FrameStrobe[14]
*71 FrameStrobe[15]
*72 FrameStrobe[16]
*73 FrameStrobe[17]
*74 FrameStrobe[18]
*75 FrameStrobe[19]
*76 FrameStrobe[1]
*77 FrameStrobe[2]
*78 FrameStrobe[3]
*79 FrameStrobe[4]
*80 FrameStrobe[5]
*81 FrameStrobe[6]
*82 FrameStrobe[7]
*83 FrameStrobe[8]
*84 FrameStrobe[9]
*85 FrameStrobe_O[0]
*86 FrameStrobe_O[10]
*87 FrameStrobe_O[11]
*88 FrameStrobe_O[12]
*89 FrameStrobe_O[13]
*90 FrameStrobe_O[14]
*91 FrameStrobe_O[15]
*92 FrameStrobe_O[16]
*93 FrameStrobe_O[17]
*94 FrameStrobe_O[18]
*95 FrameStrobe_O[19]
*96 FrameStrobe_O[1]
*97 FrameStrobe_O[2]
*98 FrameStrobe_O[3]
*99 FrameStrobe_O[4]
*100 FrameStrobe_O[5]
*101 FrameStrobe_O[6]
*102 FrameStrobe_O[7]
*103 FrameStrobe_O[8]
*104 FrameStrobe_O[9]
*105 N1BEG[0]
*106 N1BEG[1]
*107 N1BEG[2]
*108 N1BEG[3]
*109 N2BEG[0]
*110 N2BEG[1]
*111 N2BEG[2]
*112 N2BEG[3]
*113 N2BEG[4]
*114 N2BEG[5]
*115 N2BEG[6]
*116 N2BEG[7]
*117 N2BEGb[0]
*118 N2BEGb[1]
*119 N2BEGb[2]
*120 N2BEGb[3]
*121 N2BEGb[4]
*122 N2BEGb[5]
*123 N2BEGb[6]
*124 N2BEGb[7]
*125 N4BEG[0]
*126 N4BEG[10]
*127 N4BEG[11]
*128 N4BEG[12]
*129 N4BEG[13]
*130 N4BEG[14]
*131 N4BEG[15]
*132 N4BEG[1]
*133 N4BEG[2]
*134 N4BEG[3]
*135 N4BEG[4]
*136 N4BEG[5]
*137 N4BEG[6]
*138 N4BEG[7]
*139 N4BEG[8]
*140 N4BEG[9]
*141 NN4BEG[0]
*142 NN4BEG[10]
*143 NN4BEG[11]
*144 NN4BEG[12]
*145 NN4BEG[13]
*146 NN4BEG[14]
*147 NN4BEG[15]
*148 NN4BEG[1]
*149 NN4BEG[2]
*150 NN4BEG[3]
*151 NN4BEG[4]
*152 NN4BEG[5]
*153 NN4BEG[6]
*154 NN4BEG[7]
*155 NN4BEG[8]
*156 NN4BEG[9]
*157 S1END[0]
*158 S1END[1]
*159 S1END[2]
*160 S1END[3]
*161 S2END[0]
*162 S2END[1]
*163 S2END[2]
*164 S2END[3]
*165 S2END[4]
*166 S2END[5]
*167 S2END[6]
*168 S2END[7]
*169 S2MID[0]
*170 S2MID[1]
*171 S2MID[2]
*172 S2MID[3]
*173 S2MID[4]
*174 S2MID[5]
*175 S2MID[6]
*176 S2MID[7]
*177 S4END[0]
*178 S4END[10]
*179 S4END[11]
*180 S4END[12]
*181 S4END[13]
*182 S4END[14]
*183 S4END[15]
*184 S4END[1]
*185 S4END[2]
*186 S4END[3]
*187 S4END[4]
*188 S4END[5]
*189 S4END[6]
*190 S4END[7]
*191 S4END[8]
*192 S4END[9]
*193 SS4END[0]
*194 SS4END[10]
*195 SS4END[11]
*196 SS4END[12]
*197 SS4END[13]
*198 SS4END[14]
*199 SS4END[15]
*200 SS4END[1]
*201 SS4END[2]
*202 SS4END[3]
*203 SS4END[4]
*204 SS4END[5]
*205 SS4END[6]
*206 SS4END[7]
*207 SS4END[8]
*208 SS4END[9]
*209 UserCLK
*210 UserCLKo
*213 net1
*214 net10
*215 net100
*216 net101
*217 net102
*218 net103
*219 net104
*220 net105
*221 net11
*222 net12
*223 net13
*224 net14
*225 net15
*226 net16
*227 net17
*228 net18
*229 net19
*230 net2
*231 net20
*232 net21
*233 net22
*234 net23
*235 net24
*236 net25
*237 net26
*238 net27
*239 net28
*240 net29
*241 net3
*242 net30
*243 net31
*244 net32
*245 net33
*246 net34
*247 net35
*248 net36
*249 net37
*250 net38
*251 net39
*252 net4
*253 net40
*254 net41
*255 net42
*256 net43
*257 net44
*258 net45
*259 net46
*260 net47
*261 net48
*262 net49
*263 net5
*264 net50
*265 net51
*266 net52
*267 net53
*268 net54
*269 net55
*270 net56
*271 net57
*272 net58
*273 net59
*274 net6
*275 net60
*276 net61
*277 net62
*278 net63
*279 net64
*280 net65
*281 net66
*282 net67
*283 net68
*284 net69
*285 net7
*286 net70
*287 net71
*288 net72
*289 net73
*290 net74
*291 net75
*292 net76
*293 net77
*294 net78
*295 net79
*296 net8
*297 net80
*298 net81
*299 net82
*300 net83
*301 net84
*302 net85
*303 net86
*304 net87
*305 net88
*306 net89
*307 net9
*308 net90
*309 net91
*310 net92
*311 net93
*312 net94
*313 net95
*314 net96
*315 net97
*316 net98
*317 net99
*318 FILLER_0_0
*319 FILLER_0_105
*320 FILLER_0_112
*321 FILLER_0_119
*322 FILLER_0_126
*323 FILLER_0_133
*324 FILLER_0_14
*325 FILLER_0_140
*326 FILLER_0_147
*327 FILLER_0_154
*328 FILLER_0_161
*329 FILLER_0_168
*330 FILLER_0_175
*331 FILLER_0_182
*332 FILLER_0_189
*333 FILLER_0_196
*334 FILLER_0_203
*335 FILLER_0_21
*336 FILLER_0_210
*337 FILLER_0_217
*338 FILLER_0_224
*339 FILLER_0_231
*340 FILLER_0_238
*341 FILLER_0_245
*342 FILLER_0_252
*343 FILLER_0_259
*344 FILLER_0_266
*345 FILLER_0_273
*346 FILLER_0_28
*347 FILLER_0_280
*348 FILLER_0_287
*349 FILLER_0_294
*350 FILLER_0_301
*351 FILLER_0_308
*352 FILLER_0_315
*353 FILLER_0_322
*354 FILLER_0_329
*355 FILLER_0_336
*356 FILLER_0_343
*357 FILLER_0_35
*358 FILLER_0_350
*359 FILLER_0_357
*360 FILLER_0_364
*361 FILLER_0_42
*362 FILLER_0_49
*363 FILLER_0_56
*364 FILLER_0_63
*365 FILLER_0_7
*366 FILLER_0_70
*367 FILLER_0_77
*368 FILLER_0_84
*369 FILLER_0_91
*370 FILLER_0_98
*371 FILLER_10_0
*372 FILLER_10_14
*373 FILLER_10_177
*374 FILLER_10_184
*375 FILLER_10_191
*376 FILLER_10_198
*377 FILLER_10_205
*378 FILLER_10_21
*379 FILLER_10_212
*380 FILLER_10_219
*381 FILLER_10_226
*382 FILLER_10_233
*383 FILLER_10_240
*384 FILLER_10_247
*385 FILLER_10_254
*386 FILLER_10_261
*387 FILLER_10_268
*388 FILLER_10_28
*389 FILLER_10_327
*390 FILLER_10_334
*391 FILLER_10_341
*392 FILLER_10_348
*393 FILLER_10_35
*394 FILLER_10_355
*395 FILLER_10_359
*396 FILLER_10_42
*397 FILLER_10_49
*398 FILLER_10_56
*399 FILLER_10_60
*400 FILLER_10_7
*401 FILLER_1_0
*402 FILLER_1_106
*403 FILLER_1_111
*404 FILLER_1_118
*405 FILLER_1_125
*406 FILLER_1_130
*407 FILLER_1_14
*408 FILLER_1_145
*409 FILLER_1_147
*410 FILLER_1_156
*411 FILLER_1_163
*412 FILLER_1_167
*413 FILLER_1_172
*414 FILLER_1_179
*415 FILLER_1_186
*416 FILLER_1_193
*417 FILLER_1_200
*418 FILLER_1_207
*419 FILLER_1_21
*420 FILLER_1_216
*421 FILLER_1_223
*422 FILLER_1_230
*423 FILLER_1_237
*424 FILLER_1_244
*425 FILLER_1_248
*426 FILLER_1_258
*427 FILLER_1_265
*428 FILLER_1_28
*429 FILLER_1_281
*430 FILLER_1_288
*431 FILLER_1_292
*432 FILLER_1_297
*433 FILLER_1_304
*434 FILLER_1_312
*435 FILLER_1_319
*436 FILLER_1_326
*437 FILLER_1_333
*438 FILLER_1_340
*439 FILLER_1_347
*440 FILLER_1_35
*441 FILLER_1_354
*442 FILLER_1_361
*443 FILLER_1_368
*444 FILLER_1_372
*445 FILLER_1_42
*446 FILLER_1_49
*447 FILLER_1_56
*448 FILLER_1_63
*449 FILLER_1_7
*450 FILLER_1_78
*451 FILLER_1_85
*452 FILLER_1_92
*453 FILLER_1_99
*454 FILLER_2_0
*455 FILLER_2_103
*456 FILLER_2_110
*457 FILLER_2_117
*458 FILLER_2_124
*459 FILLER_2_131
*460 FILLER_2_138
*461 FILLER_2_14
*462 FILLER_2_145
*463 FILLER_2_149
*464 FILLER_2_154
*465 FILLER_2_161
*466 FILLER_2_168
*467 FILLER_2_175
*468 FILLER_2_179
*469 FILLER_2_188
*470 FILLER_2_190
*471 FILLER_2_207
*472 FILLER_2_21
*473 FILLER_2_216
*474 FILLER_2_224
*475 FILLER_2_231
*476 FILLER_2_238
*477 FILLER_2_245
*478 FILLER_2_252
*479 FILLER_2_259
*480 FILLER_2_265
*481 FILLER_2_272
*482 FILLER_2_279
*483 FILLER_2_28
*484 FILLER_2_283
*485 FILLER_2_289
*486 FILLER_2_296
*487 FILLER_2_303
*488 FILLER_2_310
*489 FILLER_2_317
*490 FILLER_2_324
*491 FILLER_2_331
*492 FILLER_2_338
*493 FILLER_2_345
*494 FILLER_2_35
*495 FILLER_2_352
*496 FILLER_2_359
*497 FILLER_2_366
*498 FILLER_2_373
*499 FILLER_2_42
*500 FILLER_2_47
*501 FILLER_2_54
*502 FILLER_2_61
*503 FILLER_2_68
*504 FILLER_2_7
*505 FILLER_2_75
*506 FILLER_2_82
*507 FILLER_2_89
*508 FILLER_2_96
*509 FILLER_3_0
*510 FILLER_3_103
*511 FILLER_3_107
*512 FILLER_3_113
*513 FILLER_3_120
*514 FILLER_3_127
*515 FILLER_3_134
*516 FILLER_3_14
*517 FILLER_3_141
*518 FILLER_3_148
*519 FILLER_3_155
*520 FILLER_3_162
*521 FILLER_3_169
*522 FILLER_3_176
*523 FILLER_3_183
*524 FILLER_3_190
*525 FILLER_3_197
*526 FILLER_3_204
*527 FILLER_3_211
*528 FILLER_3_218
*529 FILLER_3_225
*530 FILLER_3_232
*531 FILLER_3_239
*532 FILLER_3_245
*533 FILLER_3_25
*534 FILLER_3_252
*535 FILLER_3_259
*536 FILLER_3_266
*537 FILLER_3_27
*538 FILLER_3_273
*539 FILLER_3_280
*540 FILLER_3_287
*541 FILLER_3_295
*542 FILLER_3_302
*543 FILLER_3_309
*544 FILLER_3_316
*545 FILLER_3_32
*546 FILLER_3_323
*547 FILLER_3_330
*548 FILLER_3_337
*549 FILLER_3_344
*550 FILLER_3_351
*551 FILLER_3_358
*552 FILLER_3_365
*553 FILLER_3_372
*554 FILLER_3_376
*555 FILLER_3_39
*556 FILLER_3_46
*557 FILLER_3_53
*558 FILLER_3_60
*559 FILLER_3_67
*560 FILLER_3_7
*561 FILLER_3_71
*562 FILLER_3_77
*563 FILLER_3_84
*564 FILLER_3_89
*565 FILLER_3_91
*566 FILLER_3_96
*567 FILLER_3_98
*568 FILLER_4_0
*569 FILLER_4_101
*570 FILLER_4_108
*571 FILLER_4_134
*572 FILLER_4_138
*573 FILLER_4_14
*574 FILLER_4_143
*575 FILLER_4_150
*576 FILLER_4_157
*577 FILLER_4_161
*578 FILLER_4_170
*579 FILLER_4_177
*580 FILLER_4_184
*581 FILLER_4_191
*582 FILLER_4_198
*583 FILLER_4_205
*584 FILLER_4_21
*585 FILLER_4_212
*586 FILLER_4_219
*587 FILLER_4_226
*588 FILLER_4_233
*589 FILLER_4_241
*590 FILLER_4_248
*591 FILLER_4_255
*592 FILLER_4_262
*593 FILLER_4_269
*594 FILLER_4_276
*595 FILLER_4_28
*596 FILLER_4_283
*597 FILLER_4_287
*598 FILLER_4_293
*599 FILLER_4_300
*600 FILLER_4_307
*601 FILLER_4_314
*602 FILLER_4_321
*603 FILLER_4_328
*604 FILLER_4_335
*605 FILLER_4_342
*606 FILLER_4_349
*607 FILLER_4_35
*608 FILLER_4_356
*609 FILLER_4_363
*610 FILLER_4_370
*611 FILLER_4_42
*612 FILLER_4_46
*613 FILLER_4_52
*614 FILLER_4_7
*615 FILLER_4_87
*616 FILLER_4_94
*617 FILLER_5_0
*618 FILLER_5_106
*619 FILLER_5_113
*620 FILLER_5_120
*621 FILLER_5_127
*622 FILLER_5_134
*623 FILLER_5_14
*624 FILLER_5_141
*625 FILLER_5_143
*626 FILLER_5_176
*627 FILLER_5_183
*628 FILLER_5_190
*629 FILLER_5_197
*630 FILLER_5_204
*631 FILLER_5_21
*632 FILLER_5_211
*633 FILLER_5_218
*634 FILLER_5_225
*635 FILLER_5_232
*636 FILLER_5_239
*637 FILLER_5_246
*638 FILLER_5_253
*639 FILLER_5_260
*640 FILLER_5_267
*641 FILLER_5_274
*642 FILLER_5_28
*643 FILLER_5_281
*644 FILLER_5_288
*645 FILLER_5_294
*646 FILLER_5_301
*647 FILLER_5_308
*648 FILLER_5_315
*649 FILLER_5_322
*650 FILLER_5_329
*651 FILLER_5_336
*652 FILLER_5_343
*653 FILLER_5_35
*654 FILLER_5_350
*655 FILLER_5_357
*656 FILLER_5_364
*657 FILLER_5_371
*658 FILLER_5_375
*659 FILLER_5_42
*660 FILLER_5_64
*661 FILLER_5_7
*662 FILLER_5_71
*663 FILLER_5_78
*664 FILLER_5_85
*665 FILLER_5_92
*666 FILLER_5_99
*667 FILLER_6_0
*668 FILLER_6_105
*669 FILLER_6_112
*670 FILLER_6_119
*671 FILLER_6_126
*672 FILLER_6_133
*673 FILLER_6_14
*674 FILLER_6_140
*675 FILLER_6_147
*676 FILLER_6_154
*677 FILLER_6_161
*678 FILLER_6_166
*679 FILLER_6_173
*680 FILLER_6_180
*681 FILLER_6_187
*682 FILLER_6_198
*683 FILLER_6_205
*684 FILLER_6_21
*685 FILLER_6_212
*686 FILLER_6_219
*687 FILLER_6_226
*688 FILLER_6_233
*689 FILLER_6_240
*690 FILLER_6_247
*691 FILLER_6_254
*692 FILLER_6_261
*693 FILLER_6_268
*694 FILLER_6_275
*695 FILLER_6_28
*696 FILLER_6_282
*697 FILLER_6_289
*698 FILLER_6_293
*699 FILLER_6_302
*700 FILLER_6_309
*701 FILLER_6_316
*702 FILLER_6_321
*703 FILLER_6_328
*704 FILLER_6_335
*705 FILLER_6_342
*706 FILLER_6_349
*707 FILLER_6_35
*708 FILLER_6_356
*709 FILLER_6_363
*710 FILLER_6_370
*711 FILLER_6_42
*712 FILLER_6_49
*713 FILLER_6_56
*714 FILLER_6_63
*715 FILLER_6_7
*716 FILLER_6_70
*717 FILLER_6_77
*718 FILLER_6_84
*719 FILLER_6_91
*720 FILLER_6_98
*721 FILLER_7_0
*722 FILLER_7_105
*723 FILLER_7_112
*724 FILLER_7_119
*725 FILLER_7_126
*726 FILLER_7_133
*727 FILLER_7_14
*728 FILLER_7_140
*729 FILLER_7_147
*730 FILLER_7_154
*731 FILLER_7_161
*732 FILLER_7_168
*733 FILLER_7_175
*734 FILLER_7_179
*735 FILLER_7_205
*736 FILLER_7_207
*737 FILLER_7_21
*738 FILLER_7_212
*739 FILLER_7_219
*740 FILLER_7_226
*741 FILLER_7_233
*742 FILLER_7_240
*743 FILLER_7_247
*744 FILLER_7_258
*745 FILLER_7_265
*746 FILLER_7_272
*747 FILLER_7_279
*748 FILLER_7_28
*749 FILLER_7_286
*750 FILLER_7_293
*751 FILLER_7_295
*752 FILLER_7_304
*753 FILLER_7_315
*754 FILLER_7_322
*755 FILLER_7_329
*756 FILLER_7_336
*757 FILLER_7_343
*758 FILLER_7_35
*759 FILLER_7_350
*760 FILLER_7_357
*761 FILLER_7_364
*762 FILLER_7_371
*763 FILLER_7_375
*764 FILLER_7_42
*765 FILLER_7_49
*766 FILLER_7_56
*767 FILLER_7_63
*768 FILLER_7_7
*769 FILLER_7_70
*770 FILLER_7_77
*771 FILLER_7_84
*772 FILLER_7_91
*773 FILLER_7_98
*774 FILLER_8_0
*775 FILLER_8_105
*776 FILLER_8_112
*777 FILLER_8_119
*778 FILLER_8_126
*779 FILLER_8_133
*780 FILLER_8_14
*781 FILLER_8_140
*782 FILLER_8_147
*783 FILLER_8_154
*784 FILLER_8_161
*785 FILLER_8_168
*786 FILLER_8_175
*787 FILLER_8_182
*788 FILLER_8_189
*789 FILLER_8_191
*790 FILLER_8_200
*791 FILLER_8_207
*792 FILLER_8_21
*793 FILLER_8_214
*794 FILLER_8_220
*795 FILLER_8_224
*796 FILLER_8_229
*797 FILLER_8_236
*798 FILLER_8_241
*799 FILLER_8_248
*800 FILLER_8_250
*801 FILLER_8_255
*802 FILLER_8_259
*803 FILLER_8_268
*804 FILLER_8_279
*805 FILLER_8_28
*806 FILLER_8_286
*807 FILLER_8_293
*808 FILLER_8_295
*809 FILLER_8_316
*810 FILLER_8_320
*811 FILLER_8_326
*812 FILLER_8_333
*813 FILLER_8_340
*814 FILLER_8_347
*815 FILLER_8_35
*816 FILLER_8_354
*817 FILLER_8_361
*818 FILLER_8_368
*819 FILLER_8_375
*820 FILLER_8_42
*821 FILLER_8_49
*822 FILLER_8_56
*823 FILLER_8_63
*824 FILLER_8_7
*825 FILLER_8_70
*826 FILLER_8_77
*827 FILLER_8_84
*828 FILLER_8_91
*829 FILLER_8_98
*830 FILLER_9_0
*831 FILLER_9_14
*832 FILLER_9_161
*833 FILLER_9_168
*834 FILLER_9_175
*835 FILLER_9_182
*836 FILLER_9_189
*837 FILLER_9_196
*838 FILLER_9_203
*839 FILLER_9_21
*840 FILLER_9_210
*841 FILLER_9_217
*842 FILLER_9_224
*843 FILLER_9_231
*844 FILLER_9_238
*845 FILLER_9_245
*846 FILLER_9_252
*847 FILLER_9_259
*848 FILLER_9_266
*849 FILLER_9_273
*850 FILLER_9_28
*851 FILLER_9_280
*852 FILLER_9_284
*853 FILLER_9_317
*854 FILLER_9_324
*855 FILLER_9_330
*856 FILLER_9_337
*857 FILLER_9_344
*858 FILLER_9_35
*859 FILLER_9_351
*860 FILLER_9_358
*861 FILLER_9_365
*862 FILLER_9_42
*863 FILLER_9_49
*864 FILLER_9_56
*865 FILLER_9_63
*866 FILLER_9_67
*867 FILLER_9_7
*868 _000_
*869 _001_
*870 _002_
*871 _003_
*872 _004_
*873 _005_
*874 _006_
*875 _007_
*876 _008_
*877 _009_
*878 _010_
*879 _011_
*880 _012_
*881 _013_
*882 _014_
*883 _015_
*884 _016_
*885 _017_
*886 _018_
*887 _019_
*888 _020_
*889 _021_
*890 _022_
*891 _023_
*892 _024_
*893 _025_
*894 _026_
*895 _027_
*896 _028_
*897 _029_
*898 _030_
*899 _031_
*900 _032_
*901 _033_
*902 _034_
*903 _035_
*904 _036_
*905 _037_
*906 _038_
*907 _039_
*908 _040_
*909 _041_
*910 _042_
*911 _043_
*912 _044_
*913 _045_
*914 _046_
*915 _047_
*916 _048_
*917 _049_
*918 _050_
*919 _051_
*920 _052_
*921 _053_
*922 _054_
*923 _055_
*924 _056_
*925 _057_
*926 _058_
*927 _059_
*928 _060_
*929 _061_
*930 _062_
*931 _063_
*932 _064_
*933 _065_
*934 _066_
*935 _067_
*936 _068_
*937 _069_
*938 _070_
*939 _071_
*940 _072_
*941 _073_
*942 _074_
*943 _075_
*944 _076_
*945 _077_
*946 _078_
*947 _079_
*948 _080_
*949 _081_
*950 _082_
*951 _083_
*952 _084_
*953 _085_
*954 _086_
*955 _087_
*956 _088_
*957 _089_
*958 _090_
*959 _091_
*960 _092_
*961 _093_
*962 _094_
*963 _095_
*964 _096_
*965 _097_
*966 _098_
*967 _099_
*968 _100_
*969 _101_
*970 _102_
*971 _103_
*972 _104_
*973 output1
*974 output10
*975 output100
*976 output101
*977 output102
*978 output103
*979 output104
*980 output105
*981 output11
*982 output12
*983 output13
*984 output14
*985 output15
*986 output16
*987 output17
*988 output18
*989 output19
*990 output2
*991 output20
*992 output21
*993 output22
*994 output23
*995 output24
*996 output25
*997 output26
*998 output27
*999 output28
*1000 output29
*1001 output3
*1002 output30
*1003 output31
*1004 output32
*1005 output33
*1006 output34
*1007 output35
*1008 output36
*1009 output37
*1010 output38
*1011 output39
*1012 output4
*1013 output40
*1014 output41
*1015 output42
*1016 output43
*1017 output44
*1018 output45
*1019 output46
*1020 output47
*1021 output48
*1022 output49
*1023 output5
*1024 output50
*1025 output51
*1026 output52
*1027 output53
*1028 output54
*1029 output55
*1030 output56
*1031 output57
*1032 output58
*1033 output59
*1034 output6
*1035 output60
*1036 output61
*1037 output62
*1038 output63
*1039 output64
*1040 output65
*1041 output66
*1042 output67
*1043 output68
*1044 output69
*1045 output7
*1046 output70
*1047 output71
*1048 output72
*1049 output73
*1050 output74
*1051 output75
*1052 output76
*1053 output77
*1054 output78
*1055 output79
*1056 output8
*1057 output80
*1058 output81
*1059 output82
*1060 output83
*1061 output84
*1062 output85
*1063 output86
*1064 output87
*1065 output88
*1066 output89
*1067 output9
*1068 output90
*1069 output91
*1070 output92
*1071 output93
*1072 output94
*1073 output95
*1074 output96
*1075 output97
*1076 output98
*1077 output99

*PORTS
FrameData[0] I
FrameData[10] I
FrameData[11] I
FrameData[12] I
FrameData[13] I
FrameData[14] I
FrameData[15] I
FrameData[16] I
FrameData[17] I
FrameData[18] I
FrameData[19] I
FrameData[1] I
FrameData[20] I
FrameData[21] I
FrameData[22] I
FrameData[23] I
FrameData[24] I
FrameData[25] I
FrameData[26] I
FrameData[27] I
FrameData[28] I
FrameData[29] I
FrameData[2] I
FrameData[30] I
FrameData[31] I
FrameData[3] I
FrameData[4] I
FrameData[5] I
FrameData[6] I
FrameData[7] I
FrameData[8] I
FrameData[9] I
FrameData_O[0] O
FrameData_O[10] O
FrameData_O[11] O
FrameData_O[12] O
FrameData_O[13] O
FrameData_O[14] O
FrameData_O[15] O
FrameData_O[16] O
FrameData_O[17] O
FrameData_O[18] O
FrameData_O[19] O
FrameData_O[1] O
FrameData_O[20] O
FrameData_O[21] O
FrameData_O[22] O
FrameData_O[23] O
FrameData_O[24] O
FrameData_O[25] O
FrameData_O[26] O
FrameData_O[27] O
FrameData_O[28] O
FrameData_O[29] O
FrameData_O[2] O
FrameData_O[30] O
FrameData_O[31] O
FrameData_O[3] O
FrameData_O[4] O
FrameData_O[5] O
FrameData_O[6] O
FrameData_O[7] O
FrameData_O[8] O
FrameData_O[9] O
FrameStrobe[0] I
FrameStrobe[10] I
FrameStrobe[11] I
FrameStrobe[12] I
FrameStrobe[13] I
FrameStrobe[14] I
FrameStrobe[15] I
FrameStrobe[16] I
FrameStrobe[17] I
FrameStrobe[18] I
FrameStrobe[19] I
FrameStrobe[1] I
FrameStrobe[2] I
FrameStrobe[3] I
FrameStrobe[4] I
FrameStrobe[5] I
FrameStrobe[6] I
FrameStrobe[7] I
FrameStrobe[8] I
FrameStrobe[9] I
FrameStrobe_O[0] O
FrameStrobe_O[10] O
FrameStrobe_O[11] O
FrameStrobe_O[12] O
FrameStrobe_O[13] O
FrameStrobe_O[14] O
FrameStrobe_O[15] O
FrameStrobe_O[16] O
FrameStrobe_O[17] O
FrameStrobe_O[18] O
FrameStrobe_O[19] O
FrameStrobe_O[1] O
FrameStrobe_O[2] O
FrameStrobe_O[3] O
FrameStrobe_O[4] O
FrameStrobe_O[5] O
FrameStrobe_O[6] O
FrameStrobe_O[7] O
FrameStrobe_O[8] O
FrameStrobe_O[9] O
N1BEG[0] O
N1BEG[1] O
N1BEG[2] O
N1BEG[3] O
N2BEG[0] O
N2BEG[1] O
N2BEG[2] O
N2BEG[3] O
N2BEG[4] O
N2BEG[5] O
N2BEG[6] O
N2BEG[7] O
N2BEGb[0] O
N2BEGb[1] O
N2BEGb[2] O
N2BEGb[3] O
N2BEGb[4] O
N2BEGb[5] O
N2BEGb[6] O
N2BEGb[7] O
N4BEG[0] O
N4BEG[10] O
N4BEG[11] O
N4BEG[12] O
N4BEG[13] O
N4BEG[14] O
N4BEG[15] O
N4BEG[1] O
N4BEG[2] O
N4BEG[3] O
N4BEG[4] O
N4BEG[5] O
N4BEG[6] O
N4BEG[7] O
N4BEG[8] O
N4BEG[9] O
NN4BEG[0] O
NN4BEG[10] O
NN4BEG[11] O
NN4BEG[12] O
NN4BEG[13] O
NN4BEG[14] O
NN4BEG[15] O
NN4BEG[1] O
NN4BEG[2] O
NN4BEG[3] O
NN4BEG[4] O
NN4BEG[5] O
NN4BEG[6] O
NN4BEG[7] O
NN4BEG[8] O
NN4BEG[9] O
S1END[0] I
S1END[1] I
S1END[2] I
S1END[3] I
S2END[0] I
S2END[1] I
S2END[2] I
S2END[3] I
S2END[4] I
S2END[5] I
S2END[6] I
S2END[7] I
S2MID[0] I
S2MID[1] I
S2MID[2] I
S2MID[3] I
S2MID[4] I
S2MID[5] I
S2MID[6] I
S2MID[7] I
S4END[0] I
S4END[10] I
S4END[11] I
S4END[12] I
S4END[13] I
S4END[14] I
S4END[15] I
S4END[1] I
S4END[2] I
S4END[3] I
S4END[4] I
S4END[5] I
S4END[6] I
S4END[7] I
S4END[8] I
S4END[9] I
SS4END[0] I
SS4END[10] I
SS4END[11] I
SS4END[12] I
SS4END[13] I
SS4END[14] I
SS4END[15] I
SS4END[1] I
SS4END[2] I
SS4END[3] I
SS4END[4] I
SS4END[5] I
SS4END[6] I
SS4END[7] I
SS4END[8] I
SS4END[9] I
UserCLK I
UserCLKo O

*D_NET *1 0.00612682
*CONN
*P FrameData[0] I
*I *868:A I *D sg13g2_buf_1
*CAP
1 FrameData[0] 0.00259417
2 *868:A 0.000469243
3 *1:7 0.00306341
4 *868:A *7:23 0
5 *868:A *26:11 0
6 *868:A *79:7 0
7 *1:7 *12:5 0
*RES
1 FrameData[0] *1:7 49.5996 
2 *1:7 *868:A 45.2942 
*END

*D_NET *2 0.0207472
*CONN
*P FrameData[10] I
*I *878:A I *D sg13g2_buf_1
*CAP
1 FrameData[10] 0.000699965
2 *878:A 0
3 *2:15 0.000129893
4 *2:9 0.00393703
5 *2:7 0.0045071
6 *2:7 *3:15 0
7 *2:7 *4:13 0
8 *2:7 *10:15 0
9 *2:7 *31:9 0
10 *2:7 *209:11 0.000394495
11 *2:9 *3:15 0
12 *2:9 *10:15 0
13 *2:9 *10:19 0
14 *2:9 *11:29 0
15 *2:9 *166:21 0.00430103
16 *2:9 *209:11 0
17 *2:9 *220:8 0
18 *2:9 *220:14 0.00565593
19 *2:9 *240:18 0.00101971
20 *2:9 *297:8 0.000102007
21 *2:15 *167:27 0
22 *2:15 *296:10 0
*RES
1 FrameData[10] *2:7 7.67093 
2 *2:7 *2:9 47.3182 
3 *2:9 *2:15 41.1845 
4 *2:15 *878:A 20 
*END

*D_NET *3 0.020702
*CONN
*P FrameData[11] I
*I *879:A I *D sg13g2_buf_1
*CAP
1 FrameData[11] 0.00281681
2 *879:A 0
3 *3:39 0.000165517
4 *3:31 0.00143124
5 *3:23 0.00152192
6 *3:15 0.00307301
7 *3:15 *924:A 0
8 *3:15 *940:A 0.000234226
9 *3:15 *941:A 0.00055397
10 *3:15 *4:11 0
11 *3:15 *5:13 0
12 *3:15 *65:17 7.51684e-05
13 *3:15 *157:15 0
14 *3:15 *170:25 0.000713256
15 *3:15 *209:11 0
16 *3:15 *220:8 0
17 *3:15 *245:8 4.8786e-05
18 *3:15 *281:8 4.8786e-05
19 *3:15 *289:8 0.000101968
20 *3:23 *5:19 4.66137e-05
21 *3:23 *7:23 0
22 *3:23 *14:13 0
23 *3:31 *888:A 0.00203716
24 *3:31 *941:A 0.000310189
25 *3:31 *5:25 0.00438133
26 *3:31 *167:9 0.000340669
27 *3:31 *170:25 0
28 *3:31 *182:17 0.00241633
29 *3:31 *220:14 0
30 *3:39 *880:A 6.31169e-05
31 *3:39 *230:10 0
32 *3:39 *263:16 8.01437e-05
33 *3:39 *296:10 0.000241791
34 *2:7 *3:15 0
35 *2:9 *3:15 0
*RES
1 FrameData[11] *3:15 49.2082 
2 *3:15 *3:23 42.8943 
3 *3:23 *3:31 45.2453 
4 *3:31 *3:39 41.9364 
5 *3:39 *879:A 20 
*END

*D_NET *4 0.0241649
*CONN
*P FrameData[12] I
*I *880:A I *D sg13g2_buf_1
*CAP
1 FrameData[12] 0.000321838
2 *880:A 0.000486224
3 *4:13 0.00421705
4 *4:11 0.00405266
5 *880:A *10:19 4.76613e-05
6 *880:A *11:29 0.000356541
7 *880:A *31:19 4.6523e-05
8 *880:A *214:14 0.000101968
9 *880:A *230:10 0.000394495
10 *880:A *241:14 0.000314891
11 *880:A *263:8 0.000234832
12 *880:A *263:20 2.20968e-05
13 *4:11 *5:13 0
14 *4:11 *9:9 0
15 *4:11 *32:11 0
16 *4:13 *871:A 0.00183142
17 *4:13 *901:A 0.00018113
18 *4:13 *10:15 0
19 *4:13 *10:19 0.00974646
20 *4:13 *28:29 0.000181422
21 *4:13 *31:9 0
22 *4:13 *31:15 0.0015646
23 *4:13 *31:19 0
24 *2:7 *4:13 0
25 *3:15 *4:11 0
26 *3:39 *880:A 6.31169e-05
*RES
1 FrameData[12] *4:11 43.5921 
2 *4:11 *4:13 52.015 
3 *4:13 *880:A 27.2821 
*END

*D_NET *5 0.022654
*CONN
*P FrameData[13] I
*I *881:A I *D sg13g2_buf_1
*CAP
1 FrameData[13] 0.00252234
2 *881:A 0
3 *5:25 0.000987219
4 *5:19 0.00117549
5 *5:13 0.0027106
6 *5:13 *924:A 0.0035338
7 *5:13 *6:13 0.00291502
8 *5:19 *7:23 0
9 *5:25 *167:27 0
10 *5:25 *220:14 0.00438155
11 *5:25 *240:10 0
12 *3:15 *5:13 0
13 *3:23 *5:19 4.66137e-05
14 *3:31 *5:25 0.00438133
15 *4:11 *5:13 0
*RES
1 FrameData[13] *5:13 32.7926 
2 *5:13 *5:19 41.6171 
3 *5:19 *5:25 41.9905 
4 *5:25 *881:A 40 
*END

*D_NET *6 0.0156751
*CONN
*P FrameData[14] I
*I *882:A I *D sg13g2_buf_1
*CAP
1 FrameData[14] 0.00262651
2 *882:A 0
3 *6:27 0.000504321
4 *6:19 0.00102743
5 *6:13 0.00314962
6 *6:13 *920:A 0.000766139
7 *6:13 *928:A 0
8 *6:13 *7:17 0
9 *6:13 *160:19 0.00188242
10 *6:13 *168:31 0
11 *6:13 *174:35 0
12 *6:13 *271:8 4.8613e-05
13 *6:13 *286:8 0.000659657
14 *6:19 *7:23 0
15 *6:19 *26:11 0.000305127
16 *6:19 *299:16 1.54007e-05
17 *6:27 *8:27 0.00177487
18 *5:13 *6:13 0.00291502
*RES
1 FrameData[14] *6:13 33.5033 
2 *6:13 *6:19 45.2942 
3 *6:19 *6:27 48.5799 
4 *6:27 *882:A 20 
*END

*D_NET *7 0.018964
*CONN
*P FrameData[15] I
*I *883:A I *D sg13g2_buf_1
*CAP
1 FrameData[15] 0.00240637
2 *883:A 0
3 *7:29 0.000885247
4 *7:23 0.0017549
5 *7:17 0.00327603
6 *7:17 *920:A 0
7 *7:17 *921:A 7.53575e-05
8 *7:17 *922:A 4.65959e-05
9 *7:17 *8:9 0
10 *7:17 *16:13 0
11 *7:17 *169:21 0.00187936
12 *7:17 *174:27 0.00235646
13 *7:17 *175:23 0
14 *7:17 *269:8 0.000155055
15 *7:17 *270:10 0
16 *7:17 *272:8 0.000393929
17 *7:23 *26:11 0
18 *7:23 *173:17 0.00024136
19 *7:23 *181:13 0.000304911
20 *7:23 *181:21 0.000303524
21 *7:23 *299:16 0
22 *7:29 *27:5 0
23 *7:29 *28:19 0.00220322
24 *7:29 *80:9 0.00268168
25 *7:29 *213:10 0
26 *7:29 *237:10 0
27 *868:A *7:23 0
28 *3:23 *7:23 0
29 *5:19 *7:23 0
30 *6:13 *7:17 0
31 *6:19 *7:23 0
*RES
1 FrameData[15] *7:17 31.8244 
2 *7:17 *7:23 48.9713 
3 *7:23 *7:29 35.6251 
4 *7:29 *883:A 40 
*END

*D_NET *8 0.0166248
*CONN
*P FrameData[16] I
*I *884:A I *D sg13g2_buf_1
*CAP
1 FrameData[16] 0.00122176
2 *884:A 0
3 *8:27 0.00194283
4 *8:21 0.00194283
5 *8:17 0.00221268
6 *8:9 0.00343444
7 *8:9 *9:9 0
8 *8:9 *10:9 0
9 *8:9 *11:9 0
10 *8:9 *13:9 0
11 *8:9 *209:11 0
12 *8:17 *902:A 0
13 *8:17 *29:15 7.53965e-05
14 *8:17 *30:5 0.00320856
15 *8:17 *78:11 0.0006606
16 *8:17 *258:14 0.000102007
17 *8:17 *259:12 4.8786e-05
18 *8:27 *904:A 0
19 *8:27 *244:22 0
20 *8:27 *263:16 0
21 *6:27 *8:27 0.00177487
22 *7:17 *8:9 0
*RES
1 FrameData[16] *8:9 31.7497 
2 *8:9 *8:17 46.4813 
3 *8:17 *8:21 40 
4 *8:21 *8:27 45.6058 
5 *8:27 *884:A 40 
*END

*D_NET *9 0.0286658
*CONN
*P FrameData[17] I
*I *885:A I *D sg13g2_buf_1
*CAP
1 FrameData[17] 0.00122006
2 *885:A 0
3 *9:33 0.00187216
4 *9:27 0.00472279
5 *9:19 0.00386443
6 *9:9 0.00223386
7 *9:9 *10:9 0
8 *9:9 *13:9 0.00124837
9 *9:9 *32:11 0
10 *9:19 *23:5 0
11 *9:19 *26:5 0.0022394
12 *9:27 *23:5 0
13 *9:27 *26:5 0.0038794
14 *9:27 *79:11 0
15 *9:27 *213:16 0.00405869
16 *9:33 *66:9 0.00324659
17 *9:33 *70:9 0
18 *9:33 *213:16 0
19 *9:33 *260:10 8.00835e-05
20 *4:11 *9:9 0
21 *8:9 *9:9 0
*RES
1 FrameData[17] *9:9 34.3453 
2 *9:9 *9:19 32.7102 
3 *9:19 *9:27 39.9022 
4 *9:27 *9:33 40.2619 
5 *9:33 *885:A 40 
*END

*D_NET *10 0.0270156
*CONN
*P FrameData[18] I
*I *886:A I *D sg13g2_buf_1
*CAP
1 FrameData[18] 0.00103922
2 *886:A 0
3 *10:19 0.00211628
4 *10:15 0.00264537
5 *10:9 0.00156831
6 *10:9 *11:9 0.00115116
7 *10:9 *16:11 0.000210775
8 *10:19 *11:29 0.00849032
9 *880:A *10:19 4.76613e-05
10 *2:7 *10:15 0
11 *2:9 *10:15 0
12 *2:9 *10:19 0
13 *4:13 *10:15 0
14 *4:13 *10:19 0.00974646
15 *8:9 *10:9 0
16 *9:9 *10:9 0
*RES
1 FrameData[18] *10:9 30.8227 
2 *10:9 *10:15 24.6247 
3 *10:15 *10:19 46.6178 
4 *10:19 *886:A 20 
*END

*D_NET *11 0.0358484
*CONN
*P FrameData[19] I
*I *887:A I *D sg13g2_buf_1
*CAP
1 FrameData[19] 0.00113936
2 *887:A 0.00040342
3 *11:35 0.000499934
4 *11:29 0.00274443
5 *11:19 0.00281037
6 *11:13 0.000616374
7 *11:9 0.00159328
8 *887:A *230:10 0.000181799
9 *887:A *241:14 0.00209678
10 *887:A *244:30 0.00183124
11 *11:9 *13:9 0
12 *11:9 *14:11 0.000794014
13 *11:9 *16:11 0
14 *11:13 *13:21 0.00241047
15 *11:13 *31:9 0.00241002
16 *11:19 *901:A 0
17 *11:29 *166:21 0.00433109
18 *11:29 *240:18 0.00148706
19 *11:29 *263:20 0.000500709
20 *11:35 *67:13 0
21 *11:35 *263:16 0
22 *880:A *11:29 0.000356541
23 *2:9 *11:29 0
24 *8:9 *11:9 0
25 *10:9 *11:9 0.00115116
26 *10:19 *11:29 0.00849032
*RES
1 FrameData[19] *11:9 32.7385 
2 *11:9 *11:13 31.227 
3 *11:13 *11:19 41.4008 
4 *11:19 *11:29 45.1655 
5 *11:29 *11:35 40.9682 
6 *11:35 *887:A 29.7438 
*END

*D_NET *12 0.00776815
*CONN
*P FrameData[1] I
*I *869:A I *D sg13g2_buf_1
*CAP
1 FrameData[1] 0.00348477
2 *869:A 0
3 *12:11 0.000399302
4 *12:5 0.00388408
5 *12:5 *23:5 0
6 *12:11 *32:27 0
7 *12:11 *81:7 0
8 *1:7 *12:5 0
*RES
1 FrameData[1] *12:5 38.0044 
2 *12:5 *12:11 44.429 
3 *12:11 *869:A 20 
*END

*D_NET *13 0.0297131
*CONN
*P FrameData[20] I
*I *888:A I *D sg13g2_buf_1
*CAP
1 FrameData[20] 0.00124543
2 *888:A 0.000932445
3 *13:27 0.00122753
4 *13:21 0.00361485
5 *13:11 0.00331977
6 *13:9 0.00124543
7 *888:A *182:17 0.00342094
8 *888:A *220:14 0
9 *888:A *224:6 0
10 *888:A *285:16 0
11 *13:9 *14:11 0
12 *13:21 *30:5 0
13 *13:21 *31:9 0
14 *13:21 *31:15 0
15 *13:21 *32:19 0.00316086
16 *13:21 *167:33 0.000101779
17 *13:21 *167:37 0.0027696
18 *13:21 *237:10 0.00105957
19 *13:21 *244:14 0.0018172
20 *13:21 *257:12 0.000101685
21 *3:31 *888:A 0.00203716
22 *8:9 *13:9 0
23 *9:9 *13:9 0.00124837
24 *11:9 *13:9 0
25 *11:13 *13:21 0.00241047
*RES
1 FrameData[20] *13:9 33.0784 
2 *13:9 *13:11 20 
3 *13:11 *13:21 44.9492 
4 *13:21 *13:27 42.9149 
5 *13:27 *888:A 36.9847 
*END

*D_NET *14 0.0129619
*CONN
*P FrameData[21] I
*I *889:A I *D sg13g2_buf_1
*CAP
1 FrameData[21] 0.00094252
2 *889:A 0
3 *14:17 0
4 *14:13 0.00507666
5 *14:11 0.00601918
6 *14:11 *15:11 0
7 *14:11 *16:11 0
8 *14:13 *159:19 0
9 *14:13 *164:29 0
10 *14:13 *165:25 0
11 *14:13 *168:25 0
12 *14:13 *172:21 0
13 *14:13 *181:21 0.000129519
14 *14:13 *274:14 0
15 *14:13 *287:22 0
16 *3:23 *14:13 0
17 *11:9 *14:11 0.000794014
18 *13:9 *14:11 0
*RES
1 FrameData[21] *14:11 49.6794 
2 *14:11 *14:13 59.1838 
3 *14:13 *14:17 40 
4 *14:17 *889:A 20 
*END

*D_NET *15 0.0251938
*CONN
*P FrameData[22] I
*I *890:A I *D sg13g2_buf_1
*CAP
1 FrameData[22] 0.000648664
2 *890:A 4.2405e-05
3 *15:13 0.00757545
4 *15:11 0.00818171
5 *15:11 *16:11 0.000667798
6 *15:11 *17:13 0.000128161
7 *15:11 *19:13 0.000181194
8 *15:11 *21:13 0
9 *15:13 *1056:A 0
10 *15:13 *16:13 0
11 *15:13 *70:9 0
12 *15:13 *72:11 0.00119202
13 *15:13 *177:13 0
14 *15:13 *201:9 0
15 *15:13 *216:14 0.00331251
16 *15:13 *217:18 0
17 *15:13 *295:8 0
18 *15:13 *296:16 0.00326386
19 *14:11 *15:11 0
*RES
1 FrameData[22] *15:11 48.0726 