*SPEF "ieee 1481-1999"
*DESIGN "N_term_EF_SRAM"
*DATE "08:51:20 Monday February 24, 2025"
*VENDOR "The OpenROAD Project"
*PROGRAM "OpenROAD"
*VERSION "87af90f72f3f9be1fdfa1d886f0dd8d8b8f34694"
*DESIGN_FLOW "NAME_SCOPE LOCAL" "PIN_CAP NONE"
*DIVIDER /
*DELIMITER :
*BUS_DELIMITER []
*T_UNIT 1 NS
*C_UNIT 1 PF
*R_UNIT 1 OHM
*L_UNIT 1 HENRY

*NAME_MAP
*1 FrameData[0]
*2 FrameData[10]
*3 FrameData[11]
*4 FrameData[12]
*5 FrameData[13]
*6 FrameData[14]
*7 FrameData[15]
*8 FrameData[16]
*9 FrameData[17]
*10 FrameData[18]
*11 FrameData[19]
*12 FrameData[1]
*13 FrameData[20]
*14 FrameData[21]
*15 FrameData[22]
*16 FrameData[23]
*17 FrameData[24]
*18 FrameData[25]
*19 FrameData[26]
*20 FrameData[27]
*21 FrameData[28]
*22 FrameData[29]
*23 FrameData[2]
*24 FrameData[30]
*25 FrameData[31]
*26 FrameData[3]
*27 FrameData[4]
*28 FrameData[5]
*29 FrameData[6]
*30 FrameData[7]
*31 FrameData[8]
*32 FrameData[9]
*33 FrameData_O[0]
*34 FrameData_O[10]
*35 FrameData_O[11]
*36 FrameData_O[12]
*37 FrameData_O[13]
*38 FrameData_O[14]
*39 FrameData_O[15]
*40 FrameData_O[16]
*41 FrameData_O[17]
*42 FrameData_O[18]
*43 FrameData_O[19]
*44 FrameData_O[1]
*45 FrameData_O[20]
*46 FrameData_O[21]
*47 FrameData_O[22]
*48 FrameData_O[23]
*49 FrameData_O[24]
*50 FrameData_O[25]
*51 FrameData_O[26]
*52 FrameData_O[27]
*53 FrameData_O[28]
*54 FrameData_O[29]
*55 FrameData_O[2]
*56 FrameData_O[30]
*57 FrameData_O[31]
*58 FrameData_O[3]
*59 FrameData_O[4]
*60 FrameData_O[5]
*61 FrameData_O[6]
*62 FrameData_O[7]
*63 FrameData_O[8]
*64 FrameData_O[9]
*65 FrameStrobe[0]
*66 FrameStrobe[10]
*67 FrameStrobe[11]
*68 FrameStrobe[12]
*69 FrameStrobe[13]
*70 FrameStrobe[14]
*71 FrameStrobe[15]
*72 FrameStrobe[16]
*73 FrameStrobe[17]
*74 FrameStrobe[18]
*75 FrameStrobe[19]
*76 FrameStrobe[1]
*77 FrameStrobe[2]
*78 FrameStrobe[3]
*79 FrameStrobe[4]
*80 FrameStrobe[5]
*81 FrameStrobe[6]
*82 FrameStrobe[7]
*83 FrameStrobe[8]
*84 FrameStrobe[9]
*85 FrameStrobe_O[0]
*86 FrameStrobe_O[10]
*87 FrameStrobe_O[11]
*88 FrameStrobe_O[12]
*89 FrameStrobe_O[13]
*90 FrameStrobe_O[14]
*91 FrameStrobe_O[15]
*92 FrameStrobe_O[16]
*93 FrameStrobe_O[17]
*94 FrameStrobe_O[18]
*95 FrameStrobe_O[19]
*96 FrameStrobe_O[1]
*97 FrameStrobe_O[2]
*98 FrameStrobe_O[3]
*99 FrameStrobe_O[4]
*100 FrameStrobe_O[5]
*101 FrameStrobe_O[6]
*102 FrameStrobe_O[7]
*103 FrameStrobe_O[8]
*104 FrameStrobe_O[9]
*105 N1END[0]
*106 N1END[1]
*107 N1END[2]
*108 N1END[3]
*109 N2END[0]
*110 N2END[1]
*111 N2END[2]
*112 N2END[3]
*113 N2END[4]
*114 N2END[5]
*115 N2END[6]
*116 N2END[7]
*117 N2MID[0]
*118 N2MID[1]
*119 N2MID[2]
*120 N2MID[3]
*121 N2MID[4]
*122 N2MID[5]
*123 N2MID[6]
*124 N2MID[7]
*125 N4END[0]
*126 N4END[10]
*127 N4END[11]
*128 N4END[12]
*129 N4END[13]
*130 N4END[14]
*131 N4END[15]
*132 N4END[1]
*133 N4END[2]
*134 N4END[3]
*135 N4END[4]
*136 N4END[5]
*137 N4END[6]
*138 N4END[7]
*139 N4END[8]
*140 N4END[9]
*141 S1BEG[0]
*142 S1BEG[1]
*143 S1BEG[2]
*144 S1BEG[3]
*145 S2BEG[0]
*146 S2BEG[1]
*147 S2BEG[2]
*148 S2BEG[3]
*149 S2BEG[4]
*150 S2BEG[5]
*151 S2BEG[6]
*152 S2BEG[7]
*153 S2BEGb[0]
*154 S2BEGb[1]
*155 S2BEGb[2]
*156 S2BEGb[3]
*157 S2BEGb[4]
*158 S2BEGb[5]
*159 S2BEGb[6]
*160 S2BEGb[7]
*161 S4BEG[0]
*162 S4BEG[10]
*163 S4BEG[11]
*164 S4BEG[12]
*165 S4BEG[13]
*166 S4BEG[14]
*167 S4BEG[15]
*168 S4BEG[1]
*169 S4BEG[2]
*170 S4BEG[3]
*171 S4BEG[4]
*172 S4BEG[5]
*173 S4BEG[6]
*174 S4BEG[7]
*175 S4BEG[8]
*176 S4BEG[9]
*177 UserCLK
*178 UserCLKo
*181 net1
*182 net10
*183 net11
*184 net12
*185 net13
*186 net14
*187 net15
*188 net16
*189 net17
*190 net18
*191 net19
*192 net2
*193 net20
*194 net21
*195 net22
*196 net23
*197 net24
*198 net25
*199 net26
*200 net27
*201 net28
*202 net29
*203 net3
*204 net30
*205 net31
*206 net32
*207 net33
*208 net34
*209 net35
*210 net36
*211 net37
*212 net38
*213 net39
*214 net4
*215 net40
*216 net41
*217 net42
*218 net43
*219 net44
*220 net45
*221 net46
*222 net47
*223 net48
*224 net49
*225 net5
*226 net50
*227 net51
*228 net52
*229 net53
*230 net54
*231 net55
*232 net56
*233 net57
*234 net58
*235 net59
*236 net6
*237 net60
*238 net61
*239 net62
*240 net63
*241 net64
*242 net65
*243 net66
*244 net67
*245 net68
*246 net69
*247 net7
*248 net70
*249 net71
*250 net72
*251 net73
*252 net74
*253 net75
*254 net76
*255 net77
*256 net78
*257 net79
*258 net8
*259 net80
*260 net81
*261 net82
*262 net83
*263 net84
*264 net85
*265 net86
*266 net87
*267 net88
*268 net89
*269 net9
*270 ANTENNA_1
*271 ANTENNA_10
*272 ANTENNA_11
*273 ANTENNA_12
*274 ANTENNA_13
*275 ANTENNA_14
*276 ANTENNA_15
*277 ANTENNA_16
*278 ANTENNA_17
*279 ANTENNA_18
*280 ANTENNA_19
*281 ANTENNA_2
*282 ANTENNA_20
*283 ANTENNA_21
*284 ANTENNA_22
*285 ANTENNA_23
*286 ANTENNA_24
*287 ANTENNA_25
*288 ANTENNA_3
*289 ANTENNA_4
*290 ANTENNA_5
*291 ANTENNA_6
*292 ANTENNA_7
*293 ANTENNA_8
*294 ANTENNA_9
*295 FILLER_0_109
*296 FILLER_0_113
*297 FILLER_0_125
*298 FILLER_0_133
*299 FILLER_0_141
*300 FILLER_0_15
*301 FILLER_0_169
*302 FILLER_0_182
*303 FILLER_0_221
*304 FILLER_0_249
*305 FILLER_0_257
*306 FILLER_0_269
*307 FILLER_0_27
*308 FILLER_0_277
*309 FILLER_0_281
*310 FILLER_0_29
*311 FILLER_0_293
*312 FILLER_0_3
*313 FILLER_0_305
*314 FILLER_0_309
*315 FILLER_0_317
*316 FILLER_0_337
*317 FILLER_0_41
*318 FILLER_0_53
*319 FILLER_0_57
*320 FILLER_0_69
*321 FILLER_0_81
*322 FILLER_0_85
*323 FILLER_0_97
*324 FILLER_10_109
*325 FILLER_10_121
*326 FILLER_10_133
*327 FILLER_10_139
*328 FILLER_10_141
*329 FILLER_10_15
*330 FILLER_10_153
*331 FILLER_10_165
*332 FILLER_10_177
*333 FILLER_10_189
*334 FILLER_10_195
*335 FILLER_10_197
*336 FILLER_10_209
*337 FILLER_10_221
*338 FILLER_10_233
*339 FILLER_10_245
*340 FILLER_10_251
*341 FILLER_10_253
*342 FILLER_10_265
*343 FILLER_10_27
*344 FILLER_10_277
*345 FILLER_10_289
*346 FILLER_10_29
*347 FILLER_10_3
*348 FILLER_10_301
*349 FILLER_10_307
*350 FILLER_10_309
*351 FILLER_10_317
*352 FILLER_10_41
*353 FILLER_10_53
*354 FILLER_10_65
*355 FILLER_10_77
*356 FILLER_10_83
*357 FILLER_10_85
*358 FILLER_10_97
*359 FILLER_11_103
*360 FILLER_11_108
*361 FILLER_11_113
*362 FILLER_11_125
*363 FILLER_11_137
*364 FILLER_11_145
*365 FILLER_11_153
*366 FILLER_11_159
*367 FILLER_11_167
*368 FILLER_11_169
*369 FILLER_11_176
*370 FILLER_11_18
*371 FILLER_11_188
*372 FILLER_11_193
*373 FILLER_11_197
*374 FILLER_11_205
*375 FILLER_11_210
*376 FILLER_11_222
*377 FILLER_11_229
*378 FILLER_11_23
*379 FILLER_11_237
*380 FILLER_11_244
*381 FILLER_11_253
*382 FILLER_11_261
*383 FILLER_11_27
*384 FILLER_11_273
*385 FILLER_11_278
*386 FILLER_11_281
*387 FILLER_11_289
*388 FILLER_11_29
*389 FILLER_11_295
*390 FILLER_11_307
*391 FILLER_11_329
*392 FILLER_11_337
*393 FILLER_11_35
*394 FILLER_11_40
*395 FILLER_11_52
*396 FILLER_11_6
*397 FILLER_11_61
*398 FILLER_11_69
*399 FILLER_11_74
*400 FILLER_11_82
*401 FILLER_11_85
*402 FILLER_11_91
*403 FILLER_1_105
*404 FILLER_1_111
*405 FILLER_1_113
*406 FILLER_1_125
*407 FILLER_1_137
*408 FILLER_1_149
*409 FILLER_1_15
*410 FILLER_1_153
*411 FILLER_1_158
*412 FILLER_1_162
*413 FILLER_1_167
*414 FILLER_1_169
*415 FILLER_1_181
*416 FILLER_1_193
*417 FILLER_1_203
*418 FILLER_1_219
*419 FILLER_1_223
*420 FILLER_1_229
*421 FILLER_1_239
*422 FILLER_1_245
*423 FILLER_1_251
*424 FILLER_1_263
*425 FILLER_1_27
*426 FILLER_1_275
*427 FILLER_1_279
*428 FILLER_1_281
*429 FILLER_1_293
*430 FILLER_1_3
*431 FILLER_1_305
*432 FILLER_1_317
*433 FILLER_1_325
*434 FILLER_1_337
*435 FILLER_1_39
*436 FILLER_1_51
*437 FILLER_1_55
*438 FILLER_1_57
*439 FILLER_1_69
*440 FILLER_1_81
*441 FILLER_1_93
*442 FILLER_2_109
*443 FILLER_2_121
*444 FILLER_2_126
*445 FILLER_2_138
*446 FILLER_2_141
*447 FILLER_2_15
*448 FILLER_2_153
*449 FILLER_2_165
*450 FILLER_2_177
*451 FILLER_2_189
*452 FILLER_2_195
*453 FILLER_2_197
*454 FILLER_2_209
*455 FILLER_2_215
*456 FILLER_2_229
*457 FILLER_2_241
*458 FILLER_2_249
*459 FILLER_2_253
*460 FILLER_2_261
*461 FILLER_2_267
*462 FILLER_2_27
*463 FILLER_2_278
*464 FILLER_2_29
*465 FILLER_2_290
*466 FILLER_2_3
*467 FILLER_2_302
*468 FILLER_2_309
*469 FILLER_2_321
*470 FILLER_2_329
*471 FILLER_2_41
*472 FILLER_2_53
*473 FILLER_2_65
*474 FILLER_2_77
*475 FILLER_2_83
*476 FILLER_2_85
*477 FILLER_2_97
*478 FILLER_3_105
*479 FILLER_3_111
*480 FILLER_3_113
*481 FILLER_3_119
*482 FILLER_3_129
*483 FILLER_3_133
*484 FILLER_3_141
*485 FILLER_3_148
*486 FILLER_3_15
*487 FILLER_3_155
*488 FILLER_3_162
*489 FILLER_3_172
*490 FILLER_3_182
*491 FILLER_3_187
*492 FILLER_3_193
*493 FILLER_3_196
*494 FILLER_3_205
*495 FILLER_3_217
*496 FILLER_3_223
*497 FILLER_3_225
*498 FILLER_3_232
*499 FILLER_3_238
*500 FILLER_3_242
*501 FILLER_3_246
*502 FILLER_3_250
*503 FILLER_3_262
*504 FILLER_3_27
*505 FILLER_3_274
*506 FILLER_3_281
*507 FILLER_3_293
*508 FILLER_3_3
*509 FILLER_3_305
*510 FILLER_3_317
*511 FILLER_3_325
*512 FILLER_3_337
*513 FILLER_3_39
*514 FILLER_3_51
*515 FILLER_3_55
*516 FILLER_3_57
*517 FILLER_3_69
*518 FILLER_3_81
*519 FILLER_3_93
*520 FILLER_4_109
*521 FILLER_4_116
*522 FILLER_4_125
*523 FILLER_4_130
*524 FILLER_4_138
*525 FILLER_4_141
*526 FILLER_4_145
*527 FILLER_4_15
*528 FILLER_4_157
*529 FILLER_4_169
*530 FILLER_4_181
*531 FILLER_4_19
*532 FILLER_4_193
*533 FILLER_4_197
*534 FILLER_4_209
*535 FILLER_4_221
*536 FILLER_4_233
*537 FILLER_4_245
*538 FILLER_4_251
*539 FILLER_4_253
*540 FILLER_4_257
*541 FILLER_4_266
*542 FILLER_4_27
*543 FILLER_4_278
*544 FILLER_4_29
*545 FILLER_4_290
*546 FILLER_4_3
*547 FILLER_4_302
*548 FILLER_4_309
*549 FILLER_4_321
*550 FILLER_4_329
*551 FILLER_4_41
*552 FILLER_4_53
*553 FILLER_4_65
*554 FILLER_4_77
*555 FILLER_4_83
*556 FILLER_4_85
*557 FILLER_4_97
*558 FILLER_5_101
*559 FILLER_5_106
*560 FILLER_5_113
*561 FILLER_5_125
*562 FILLER_5_137
*563 FILLER_5_149
*564 FILLER_5_15
*565 FILLER_5_161
*566 FILLER_5_167
*567 FILLER_5_169
*568 FILLER_5_181
*569 FILLER_5_193
*570 FILLER_5_205
*571 FILLER_5_217
*572 FILLER_5_223
*573 FILLER_5_225
*574 FILLER_5_237
*575 FILLER_5_244
*576 FILLER_5_248
*577 FILLER_5_260
*578 FILLER_5_27
*579 FILLER_5_272
*580 FILLER_5_284
*581 FILLER_5_296
*582 FILLER_5_3
*583 FILLER_5_308
*584 FILLER_5_320
*585 FILLER_5_337
*586 FILLER_5_39
*587 FILLER_5_50
*588 FILLER_5_57
*589 FILLER_5_69
*590 FILLER_5_81
*591 FILLER_5_93
*592 FILLER_6_105
*593 FILLER_6_110
*594 FILLER_6_122
*595 FILLER_6_134
*596 FILLER_6_141
*597 FILLER_6_15
*598 FILLER_6_153
*599 FILLER_6_165
*600 FILLER_6_177
*601 FILLER_6_183
*602 FILLER_6_189
*603 FILLER_6_195
*604 FILLER_6_197
*605 FILLER_6_209
*606 FILLER_6_215
*607 FILLER_6_219
*608 FILLER_6_225
*609 FILLER_6_229
*610 FILLER_6_241
*611 FILLER_6_249
*612 FILLER_6_253
*613 FILLER_6_265
*614 FILLER_6_27
*615 FILLER_6_277
*616 FILLER_6_289
*617 FILLER_6_3
*618 FILLER_6_301
*619 FILLER_6_306
*620 FILLER_6_309
*621 FILLER_6_32
*622 FILLER_6_324
*623 FILLER_6_44
*624 FILLER_6_56
*625 FILLER_6_68
*626 FILLER_6_80
*627 FILLER_6_85
*628 FILLER_6_97
*629 FILLER_7_109
*630 FILLER_7_113
*631 FILLER_7_125
*632 FILLER_7_137
*633 FILLER_7_149
*634 FILLER_7_15
*635 FILLER_7_161
*636 FILLER_7_167
*637 FILLER_7_169
*638 FILLER_7_181
*639 FILLER_7_193
*640 FILLER_7_205
*641 FILLER_7_209
*642 FILLER_7_213
*643 FILLER_7_221
*644 FILLER_7_225
*645 FILLER_7_237
*646 FILLER_7_249
*647 FILLER_7_261
*648 FILLER_7_27
*649 FILLER_7_273
*650 FILLER_7_279
*651 FILLER_7_281
*652 FILLER_7_293
*653 FILLER_7_3
*654 FILLER_7_305
*655 FILLER_7_317
*656 FILLER_7_325
*657 FILLER_7_337
*658 FILLER_7_39
*659 FILLER_7_51
*660 FILLER_7_55
*661 FILLER_7_57
*662 FILLER_7_65
*663 FILLER_7_69
*664 FILLER_7_81
*665 FILLER_7_93
*666 FILLER_7_97
*667 FILLER_8_100
*668 FILLER_8_112
*669 FILLER_8_124
*670 FILLER_8_136
*671 FILLER_8_141
*672 FILLER_8_15
*673 FILLER_8_153
*674 FILLER_8_165
*675 FILLER_8_178
*676 FILLER_8_190
*677 FILLER_8_197
*678 FILLER_8_203
*679 FILLER_8_215
*680 FILLER_8_227
*681 FILLER_8_239
*682 FILLER_8_251
*683 FILLER_8_253
*684 FILLER_8_264
*685 FILLER_8_27
*686 FILLER_8_276
*687 FILLER_8_288
*688 FILLER_8_29
*689 FILLER_8_3
*690 FILLER_8_300
*691 FILLER_8_309
*692 FILLER_8_321
*693 FILLER_8_41
*694 FILLER_8_49
*695 FILLER_8_53
*696 FILLER_8_65
*697 FILLER_8_73
*698 FILLER_8_78
*699 FILLER_8_82
*700 FILLER_8_88
*701 FILLER_9_104
*702 FILLER_9_113
*703 FILLER_9_15
*704 FILLER_9_156
*705 FILLER_9_167
*706 FILLER_9_179
*707 FILLER_9_186
*708 FILLER_9_198
*709 FILLER_9_205
*710 FILLER_9_211
*711 FILLER_9_216
*712 FILLER_9_225
*713 FILLER_9_240
*714 FILLER_9_248
*715 FILLER_9_254
*716 FILLER_9_258
*717 FILLER_9_266
*718 FILLER_9_27
*719 FILLER_9_278
*720 FILLER_9_281
*721 FILLER_9_293
*722 FILLER_9_3
*723 FILLER_9_305
*724 FILLER_9_317
*725 FILLER_9_325
*726 FILLER_9_337
*727 FILLER_9_42
*728 FILLER_9_57
*729 FILLER_9_65
*730 FILLER_9_72
*731 FILLER_9_80
*732 FILLER_9_92
*733 PHY_EDGE_ROW_0_Left_12
*734 PHY_EDGE_ROW_0_Right_0
*735 PHY_EDGE_ROW_10_Left_22
*736 PHY_EDGE_ROW_10_Right_10
*737 PHY_EDGE_ROW_11_Left_23
*738 PHY_EDGE_ROW_11_Right_11
*739 PHY_EDGE_ROW_1_Left_13
*740 PHY_EDGE_ROW_1_Right_1
*741 PHY_EDGE_ROW_2_Left_14
*742 PHY_EDGE_ROW_2_Right_2
*743 PHY_EDGE_ROW_3_Left_15
*744 PHY_EDGE_ROW_3_Right_3
*745 PHY_EDGE_ROW_4_Left_16
*746 PHY_EDGE_ROW_4_Right_4
*747 PHY_EDGE_ROW_5_Left_17
*748 PHY_EDGE_ROW_5_Right_5
*749 PHY_EDGE_ROW_6_Left_18
*750 PHY_EDGE_ROW_6_Right_6
*751 PHY_EDGE_ROW_7_Left_19
*752 PHY_EDGE_ROW_7_Right_7
*753 PHY_EDGE_ROW_8_Left_20
*754 PHY_EDGE_ROW_8_Right_8
*755 PHY_EDGE_ROW_9_Left_21
*756 PHY_EDGE_ROW_9_Right_9
*757 TAP_TAPCELL_ROW_0_24
*758 TAP_TAPCELL_ROW_0_25
*759 TAP_TAPCELL_ROW_0_26
*760 TAP_TAPCELL_ROW_0_27
*761 TAP_TAPCELL_ROW_0_28
*762 TAP_TAPCELL_ROW_0_29
*763 TAP_TAPCELL_ROW_0_30
*764 TAP_TAPCELL_ROW_0_31
*765 TAP_TAPCELL_ROW_0_32
*766 TAP_TAPCELL_ROW_0_33
*767 TAP_TAPCELL_ROW_0_34
*768 TAP_TAPCELL_ROW_0_35
*769 TAP_TAPCELL_ROW_10_90
*770 TAP_TAPCELL_ROW_10_91
*771 TAP_TAPCELL_ROW_10_92
*772 TAP_TAPCELL_ROW_10_93
*773 TAP_TAPCELL_ROW_10_94
*774 TAP_TAPCELL_ROW_10_95
*775 TAP_TAPCELL_ROW_11_100
*776 TAP_TAPCELL_ROW_11_101
*777 TAP_TAPCELL_ROW_11_102
*778 TAP_TAPCELL_ROW_11_103
*779 TAP_TAPCELL_ROW_11_104
*780 TAP_TAPCELL_ROW_11_105
*781 TAP_TAPCELL_ROW_11_106
*782 TAP_TAPCELL_ROW_11_107
*783 TAP_TAPCELL_ROW_11_96
*784 TAP_TAPCELL_ROW_11_97
*785 TAP_TAPCELL_ROW_11_98
*786 TAP_TAPCELL_ROW_11_99
*787 TAP_TAPCELL_ROW_1_36
*788 TAP_TAPCELL_ROW_1_37
*789 TAP_TAPCELL_ROW_1_38
*790 TAP_TAPCELL_ROW_1_39
*791 TAP_TAPCELL_ROW_1_40
*792 TAP_TAPCELL_ROW_1_41
*793 TAP_TAPCELL_ROW_2_42
*794 TAP_TAPCELL_ROW_2_43
*795 TAP_TAPCELL_ROW_2_44
*796 TAP_TAPCELL_ROW_2_45
*797 TAP_TAPCELL_ROW_2_46
*798 TAP_TAPCELL_ROW_2_47
*799 TAP_TAPCELL_ROW_3_48
*800 TAP_TAPCELL_ROW_3_49
*801 TAP_TAPCELL_ROW_3_50
*802 TAP_TAPCELL_ROW_3_51
*803 TAP_TAPCELL_ROW_3_52
*804 TAP_TAPCELL_ROW_3_53
*805 TAP_TAPCELL_ROW_4_54
*806 TAP_TAPCELL_ROW_4_55
*807 TAP_TAPCELL_ROW_4_56
*808 TAP_TAPCELL_ROW_4_57
*809 TAP_TAPCELL_ROW_4_58
*810 TAP_TAPCELL_ROW_4_59
*811 TAP_TAPCELL_ROW_5_60
*812 TAP_TAPCELL_ROW_5_61
*813 TAP_TAPCELL_ROW_5_62
*814 TAP_TAPCELL_ROW_5_63
*815 TAP_TAPCELL_ROW_5_64
*816 TAP_TAPCELL_ROW_5_65
*817 TAP_TAPCELL_ROW_6_66
*818 TAP_TAPCELL_ROW_6_67
*819 TAP_TAPCELL_ROW_6_68
*820 TAP_TAPCELL_ROW_6_69
*821 TAP_TAPCELL_ROW_6_70
*822 TAP_TAPCELL_ROW_6_71
*823 TAP_TAPCELL_ROW_7_72
*824 TAP_TAPCELL_ROW_7_73
*825 TAP_TAPCELL_ROW_7_74
*826 TAP_TAPCELL_ROW_7_75
*827 TAP_TAPCELL_ROW_7_76
*828 TAP_TAPCELL_ROW_7_77
*829 TAP_TAPCELL_ROW_8_78
*830 TAP_TAPCELL_ROW_8_79
*831 TAP_TAPCELL_ROW_8_80
*832 TAP_TAPCELL_ROW_8_81
*833 TAP_TAPCELL_ROW_8_82
*834 TAP_TAPCELL_ROW_8_83
*835 TAP_TAPCELL_ROW_9_84
*836 TAP_TAPCELL_ROW_9_85
*837 TAP_TAPCELL_ROW_9_86
*838 TAP_TAPCELL_ROW_9_87
*839 TAP_TAPCELL_ROW_9_88
*840 TAP_TAPCELL_ROW_9_89
*841 _00_
*842 _01_
*843 _02_
*844 _03_
*845 _04_
*846 _05_
*847 _06_
*848 _07_
*849 _08_
*850 _09_
*851 _10_
*852 _11_
*853 _12_
*854 _13_
*855 _14_
*856 _15_
*857 _16_
*858 _17_
*859 _18_
*860 _19_
*861 _20_
*862 _21_
*863 _22_
*864 _23_
*865 _24_
*866 _25_
*867 _26_
*868 _27_
*869 _28_
*870 _29_
*871 _30_
*872 _31_
*873 _32_
*874 _33_
*875 _34_
*876 _35_
*877 _36_
*878 _37_
*879 _38_
*880 _39_
*881 _40_
*882 _41_
*883 _42_
*884 _43_
*885 _44_
*886 _45_
*887 _46_
*888 _47_
*889 _48_
*890 _49_
*891 _50_
*892 _51_
*893 _52_
*894 _53_
*895 _54_
*896 _55_
*897 _56_
*898 _57_
*899 _58_
*900 _59_
*901 _60_
*902 _61_
*903 _62_
*904 _63_
*905 _64_
*906 _65_
*907 _66_
*908 _67_
*909 _68_
*910 _69_
*911 _70_
*912 _71_
*913 _72_
*914 _73_
*915 _74_
*916 _75_
*917 _76_
*918 _77_
*919 _78_
*920 _79_
*921 _80_
*922 _81_
*923 _82_
*924 _83_
*925 _84_
*926 _85_
*927 _86_
*928 _87_
*929 _88_
*930 output1
*931 output10
*932 output11
*933 output12
*934 output13
*935 output14
*936 output15
*937 output16
*938 output17
*939 output18
*940 output19
*941 output2
*942 output20
*943 output21
*944 output22
*945 output23
*946 output24
*947 output25
*948 output26
*949 output27
*950 output28
*951 output29
*952 output3
*953 output30
*954 output31
*955 output32
*956 output33
*957 output34
*958 output35
*959 output36
*960 output37
*961 output38
*962 output39
*963 output4
*964 output40
*965 output41
*966 output42
*967 output43
*968 output44
*969 output45
*970 output46
*971 output47
*972 output48
*973 output49
*974 output5
*975 output50
*976 output51
*977 output52
*978 output53
*979 output54
*980 output55
*981 output56
*982 output57
*983 output58
*984 output59
*985 output6
*986 output60
*987 output61
*988 output62
*989 output63
*990 output64
*991 output65
*992 output66
*993 output67
*994 output68
*995 output69
*996 output7
*997 output70
*998 output71
*999 output72
*1000 output73
*1001 output74
*1002 output75
*1003 output76
*1004 output77
*1005 output78
*1006 output79
*1007 output8
*1008 output80
*1009 output81
*1010 output82
*1011 output83
*1012 output84
*1013 output85
*1014 output86
*1015 output87
*1016 output88
*1017 output89
*1018 output9

*PORTS
FrameData[0] I
FrameData[10] I
FrameData[11] I
FrameData[12] I
FrameData[13] I
FrameData[14] I
FrameData[15] I
FrameData[16] I
FrameData[17] I
FrameData[18] I
FrameData[19] I
FrameData[1] I
FrameData[20] I
FrameData[21] I
FrameData[22] I
FrameData[23] I
FrameData[24] I
FrameData[25] I
FrameData[26] I
FrameData[27] I
FrameData[28] I
FrameData[29] I
FrameData[2] I
FrameData[30] I
FrameData[31] I
FrameData[3] I
FrameData[4] I
FrameData[5] I
FrameData[6] I
FrameData[7] I
FrameData[8] I
FrameData[9] I
FrameData_O[0] O
FrameData_O[10] O
FrameData_O[11] O
FrameData_O[12] O
FrameData_O[13] O
FrameData_O[14] O
FrameData_O[15] O
FrameData_O[16] O
FrameData_O[17] O
FrameData_O[18] O
FrameData_O[19] O
FrameData_O[1] O
FrameData_O[20] O
FrameData_O[21] O
FrameData_O[22] O
FrameData_O[23] O
FrameData_O[24] O
FrameData_O[25] O
FrameData_O[26] O
FrameData_O[27] O
FrameData_O[28] O
FrameData_O[29] O
FrameData_O[2] O
FrameData_O[30] O
FrameData_O[31] O
FrameData_O[3] O
FrameData_O[4] O
FrameData_O[5] O
FrameData_O[6] O
FrameData_O[7] O
FrameData_O[8] O
FrameData_O[9] O
FrameStrobe[0] I
FrameStrobe[10] I
FrameStrobe[11] I
FrameStrobe[12] I
FrameStrobe[13] I
FrameStrobe[14] I
FrameStrobe[15] I
FrameStrobe[16] I
FrameStrobe[17] I
FrameStrobe[18] I
FrameStrobe[19] I
FrameStrobe[1] I
FrameStrobe[2] I
FrameStrobe[3] I
FrameStrobe[4] I
FrameStrobe[5] I
FrameStrobe[6] I
FrameStrobe[7] I
FrameStrobe[8] I
FrameStrobe[9] I
FrameStrobe_O[0] O
FrameStrobe_O[10] O
FrameStrobe_O[11] O
FrameStrobe_O[12] O
FrameStrobe_O[13] O
FrameStrobe_O[14] O
FrameStrobe_O[15] O
FrameStrobe_O[16] O
FrameStrobe_O[17] O
FrameStrobe_O[18] O
FrameStrobe_O[19] O
FrameStrobe_O[1] O
FrameStrobe_O[2] O
FrameStrobe_O[3] O
FrameStrobe_O[4] O
FrameStrobe_O[5] O
FrameStrobe_O[6] O
FrameStrobe_O[7] O
FrameStrobe_O[8] O
FrameStrobe_O[9] O
N1END[0] I
N1END[1] I
N1END[2] I
N1END[3] I
N2END[0] I
N2END[1] I
N2END[2] I
N2END[3] I
N2END[4] I
N2END[5] I
N2END[6] I
N2END[7] I
N2MID[0] I
N2MID[1] I
N2MID[2] I
N2MID[3] I
N2MID[4] I
N2MID[5] I
N2MID[6] I
N2MID[7] I
N4END[0] I
N4END[10] I
N4END[11] I
N4END[12] I
N4END[13] I
N4END[14] I
N4END[15] I
N4END[1] I
N4END[2] I
N4END[3] I
N4END[4] I
N4END[5] I
N4END[6] I
N4END[7] I
N4END[8] I
N4END[9] I
S1BEG[0] O
S1BEG[1] O
S1BEG[2] O
S1BEG[3] O
S2BEG[0] O
S2BEG[1] O
S2BEG[2] O
S2BEG[3] O
S2BEG[4] O
S2BEG[5] O
S2BEG[6] O
S2BEG[7] O
S2BEGb[0] O
S2BEGb[1] O
S2BEGb[2] O
S2BEGb[3] O
S2BEGb[4] O
S2BEGb[5] O
S2BEGb[6] O
S2BEGb[7] O
S4BEG[0] O
S4BEG[10] O
S4BEG[11] O
S4BEG[12] O
S4BEG[13] O
S4BEG[14] O
S4BEG[15] O
S4BEG[1] O
S4BEG[2] O
S4BEG[3] O
S4BEG[4] O
S4BEG[5] O
S4BEG[6] O
S4BEG[7] O
S4BEG[8] O
S4BEG[9] O
UserCLK I
UserCLKo O

*D_NET *1 0.0143837
*CONN
*P FrameData[0] I
*I *841:A I *D sky130_fd_sc_hd__buf_1
*I *270:DIODE I *D sky130_fd_sc_hd__diode_2
*CAP
1 FrameData[0] 0.00317745
2 *841:A 1.84334e-05
3 *270:DIODE 0.00319588
4 *270:DIODE S2BEG[7] 0.000137544
5 *270:DIODE S2BEGb[0] 0.000268652
6 *270:DIODE S2BEGb[1] 0
7 *270:DIODE *271:DIODE 0.0040965
8 *270:DIODE *924:A 0.000147277
9 *270:DIODE *925:A 0.00285758
10 *270:DIODE *990:A 0
11 *270:DIODE *991:A 0.000245601
12 *270:DIODE *1002:A 7.23602e-05
13 *270:DIODE *133:25 6.6621e-05
14 *270:DIODE *245:12 0
15 *270:DIODE *267:32 4.98237e-05
16 *841:A *1011:A 4.99619e-05
*RES
1 FrameData[0] *270:DIODE 25.0318 
2 *270:DIODE *841:A 3.65 
*END

*D_NET *2 0.0204396
*CONN
*P FrameData[10] I
*I *851:A I *D sky130_fd_sc_hd__clkbuf_1
*I *281:DIODE I *D sky130_fd_sc_hd__diode_2
*CAP
1 FrameData[10] 0.00461617
2 *851:A 1.72301e-05
3 *281:DIODE 0.0046334
4 *281:DIODE *283:DIODE 0.000535496
5 *281:DIODE *285:DIODE 0.00496682
6 *281:DIODE *288:DIODE 0.00362299
7 *281:DIODE *955:A 0.00136467
8 *281:DIODE *960:A 0.000282231
9 *281:DIODE *974:A 1.1392e-05
10 *281:DIODE *1003:A 0.000116624
11 *281:DIODE *31:23 6.52375e-05
12 *281:DIODE *66:15 0.000157372
13 *851:A *974:A 4.99619e-05
*RES
1 FrameData[10] *281:DIODE 22.4193 
2 *281:DIODE *851:A 3.65 
*END

*D_NET *3 0.020439
*CONN
*P FrameData[11] I
*I *852:A I *D sky130_fd_sc_hd__buf_1
*I *288:DIODE I *D sky130_fd_sc_hd__diode_2
*CAP
1 FrameData[11] 0.00404496
2 *852:A 6.93648e-06
3 *288:DIODE 0.00405189
4 *288:DIODE *289:DIODE 0.00762109
5 *288:DIODE *875:A 0
6 *288:DIODE *897:A 0.000221243
7 *288:DIODE *898:A 0.000174518
8 *288:DIODE *899:A 0.000174518
9 *288:DIODE *904:A 0.000110203
10 *288:DIODE *977:A 0
11 *288:DIODE *1014:A 0.00013827
12 *288:DIODE *31:23 0.000126737
13 *288:DIODE *78:11 4.77757e-05
14 *852:A *883:A 4.89295e-05
15 *852:A *185:22 4.89295e-05
16 *281:DIODE *288:DIODE 0.00362299
*RES
1 FrameData[11] *288:DIODE 23.7913 
2 *288:DIODE *852:A 3.65 
*END

*D_NET *4 0.0178667
*CONN
*P FrameData[12] I
*I *853:A I *D sky130_fd_sc_hd__buf_1
*I *289:DIODE I *D sky130_fd_sc_hd__diode_2
*CAP
1 FrameData[12] 0.00331262
2 *853:A 7.76463e-06
3 *289:DIODE 0.00332039
4 *289:DIODE *877:A 3.56184e-05
5 *289:DIODE *957:A 0
6 *289:DIODE *999:A 0.00010467
7 *289:DIODE *5:17 0.00291731
8 *289:DIODE *225:16 0.000448967
9 *853:A *182:12 4.82919e-05
10 *853:A *183:26 4.99619e-05
11 *288:DIODE *289:DIODE 0.00762109
*RES
1 FrameData[12] *289:DIODE 23.7186 
2 *289:DIODE *853:A 3.65 
*END

*D_NET *5 0.0157921
*CONN
*P FrameData[13] I
*I *854:A I *D sky130_fd_sc_hd__buf_1
*I *290:DIODE I *D sky130_fd_sc_hd__diode_2
*CAP
1 FrameData[13] 0.0035497
2 *854:A 8.97178e-05
3 *290:DIODE 0
4 *5:17 0.00363941
5 *854:A *182:12 8.49205e-05
6 *854:A *185:20 2.59981e-05
7 *5:17 *285:DIODE 0.000109729
8 *5:17 *291:DIODE 0.000153102
9 *5:17 *292:DIODE 0.000100403
10 *5:17 *293:DIODE 0
11 *5:17 *855:A 0.00471687
12 *5:17 *978:A 0.00017194
13 *5:17 *986:A 0
14 *5:17 *989:A 9.09574e-05
15 *5:17 *182:12 4.66108e-05
16 *5:17 *185:20 9.5433e-05
17 *5:17 *245:12 0
18 *289:DIODE *5:17 0.00291731
*RES
1 FrameData[13] *5:17 19.6858 
2 *5:17 *290:DIODE 1.6 
3 *5:17 *854:A 7.01 
*END

*D_NET *6 0.0109378
*CONN
*P FrameData[14] I
*I *855:A I *D sky130_fd_sc_hd__buf_1
*CAP
1 FrameData[14] 0.00165147
2 *855:A 0.00165147
3 *855:A *285:DIODE 0
4 *855:A *291:DIODE 0.00269577
5 *855:A *294:DIODE 0
6 *855:A *868:A 2.99518e-06
7 *855:A *194:16 0
8 *855:A *236:10 0.00021922
9 *855:A *238:20 0
10 *5:17 *855:A 0.00471687
*RES
1 FrameData[14] *855:A 19.764 
*END

*D_NET *7 0.0117195
*CONN
*P FrameData[15] I
*I *856:A I *D sky130_fd_sc_hd__buf_1
*I *291:DIODE I *D sky130_fd_sc_hd__diode_2
*CAP
1 FrameData[15] 0.00248541
2 *856:A 1.96262e-05
3 *291:DIODE 0.00250504
4 *291:DIODE *292:DIODE 0.00317397
5 *291:DIODE *988:A 0
6 *291:DIODE *238:20 0.0005215
7 *291:DIODE *240:12 0.000135083
8 *291:DIODE *247:10 0
9 *856:A *294:DIODE 3.00381e-05
10 *855:A *291:DIODE 0.00269577
11 *5:17 *291:DIODE 0.000153102
*RES
1 FrameData[15] *291:DIODE 19.152 
2 *291:DIODE *856:A 3.65 
*END

*D_NET *8 0.0128252
*CONN
*P FrameData[16] I
*I *857:A I *D sky130_fd_sc_hd__buf_1
*I *292:DIODE I *D sky130_fd_sc_hd__diode_2
*CAP
1 FrameData[16] 0.00302794
2 *857:A 1.86191e-05
3 *292:DIODE 0.00304656
4 *292:DIODE *274:DIODE 0
5 *292:DIODE *293:DIODE 0.00244941
6 *292:DIODE *866:A 6.3081e-05
7 *292:DIODE *907:A 0.000135083
8 *292:DIODE *988:A 0
9 *292:DIODE *15:15 0.000577779
10 *292:DIODE *78:21 0
11 *292:DIODE *190:14 0
12 *292:DIODE *247:10 0
13 *857:A *15:15 0.000123955
14 *857:A *183:24 0.000108444
15 *291:DIODE *292:DIODE 0.00317397
16 *5:17 *292:DIODE 0.000100403
*RES
1 FrameData[16] *292:DIODE 25.3694 
2 *292:DIODE *857:A 4.34 
*END

*D_NET *9 0.0154122
*CONN
*P FrameData[17] I
*I *858:A I *D sky130_fd_sc_hd__buf_1
*I *293:DIODE I *D sky130_fd_sc_hd__diode_2
*CAP
1 FrameData[17] 0.0044009
2 *858:A 2.2266e-05
3 *293:DIODE 0.00442316
4 *293:DIODE *272:DIODE 6.52265e-05
5 *293:DIODE *294:DIODE 0.000669926
6 *293:DIODE *859:A 0.00204433
7 *293:DIODE *872:A 3.00381e-05
8 *293:DIODE *895:A 0.000101392
9 *293:DIODE *908:A 0.000116644
10 *293:DIODE *944:A 0
11 *293:DIODE *986:A 0
12 *293:DIODE *15:15 4.82919e-05
13 *293:DIODE *183:24 0.000120252
14 *293:DIODE *185:20 0
15 *293:DIODE *187:16 3.97892e-05
16 *293:DIODE *191:10 5.53249e-06
17 *293:DIODE *197:22 6.59587e-06
18 *293:DIODE *197:30 0.000120359
19 *293:DIODE *230:20 0.00021368
20 *293:DIODE *239:14 0.000295743
21 *293:DIODE *245:12 0.000190379
22 *858:A *197:30 4.82919e-05
23 *292:DIODE *293:DIODE 0.00244941
24 *5:17 *293:DIODE 0
*RES
1 FrameData[17] *293:DIODE 24.9245 
2 *293:DIODE *858:A 3.65 
*END

*D_NET *10 0.00833336
*CONN
*P FrameData[18] I
*I *859:A I *D sky130_fd_sc_hd__buf_1
*CAP
1 FrameData[18] 0.001816
2 *859:A 0.001816
3 *859:A *294:DIODE 0.00112922
4 *859:A *861:A 0.000116643
5 *859:A *862:A 5.84554e-05
6 *859:A *868:A 0.000309707
7 *859:A *870:A 0
8 *859:A *871:A 9.51429e-05
9 *859:A *894:A 0
10 *859:A *901:A 0
11 *859:A *902:A 5.32605e-05
12 *859:A *912:A 0
13 *859:A *944:A 9.26907e-06
14 *859:A *15:15 0.000106915
15 *859:A *185:20 4.35931e-05
16 *859:A *188:14 5.03301e-05
17 *859:A *238:20 0.000502678
18 *859:A *250:16 0.000181819
19 *293:DIODE *859:A 0.00204433
*RES
1 FrameData[18] *859:A 32.9886 
*END

*D_NET *11 0.0107764
*CONN
*P FrameData[19] I
*I *860:A I *D sky130_fd_sc_hd__buf_1
*I *294:DIODE I *D sky130_fd_sc_hd__diode_2
*CAP
1 FrameData[19] 0.00259183
2 *860:A 9.73191e-06
3 *294:DIODE 0.00260156
4 *294:DIODE *286:DIODE 0.00012657
5 *294:DIODE *861:A 0.00212509
6 *294:DIODE *944:A 0.000569768
7 *294:DIODE *986:A 0.000151918
8 *294:DIODE *182:12 0.000133736
9 *294:DIODE *185:20 0.00013827
10 *294:DIODE *194:16 4.66108e-05
11 *294:DIODE *238:20 0.000228819
12 *294:DIODE *246:16 0.000126737
13 *860:A *286:DIODE 4.82863e-05
14 *860:A *866:A 4.82863e-05
15 *293:DIODE *294:DIODE 0.000669926
16 *855:A *294:DIODE 0
17 *856:A *294:DIODE 3.00381e-05
18 *859:A *294:DIODE 0.00112922
*RES
1 FrameData[19] *294:DIODE 22.9885 
2 *294:DIODE *860:A 3.65 
*END

*D_NET *12 0.020193
*CONN
*P FrameData[1] I
*I *842:A I *D sky130_fd_sc_hd__buf_1
*I *271:DIODE I *D sky130_fd_sc_hd__diode_2
*CAP
1 FrameData[1] 0.00364379
2 *842:A 5.81042e-06
3 *271:DIODE 0.0036496
4 *271:DIODE S2BEGb[6] 0.0001803
5 *271:DIODE S4BEG[1] 4.20063e-05
6 *271:DIODE S4BEG[3] 0.000100732
7 *271:DIODE *925:A 0.000124512
8 *271:DIODE *998:A 0.000171025
9 *271:DIODE *1000:A 1.49844e-05
10 *271:DIODE *1001:A 0
11 *271:DIODE *1006:A 4.53794e-05
12 *271:DIODE *1008:A 0
13 *271:DIODE *1013:A 3.05604e-05
14 *271:DIODE *23:11 0.000691013
15 *271:DIODE *26:21 0.00720438
16 *271:DIODE *133:25 8.2584e-05
17 *271:DIODE *260:26 9.86815e-06
18 *842:A *1005:A 4.99619e-05
19 *842:A *1014:A 4.99619e-05
20 *270:DIODE *271:DIODE 0.0040965
*RES
1 FrameData[1] *271:DIODE 24.9648 
2 *271:DIODE *842:A 3.65 
*END

*D_NET *13 0.00712455
*CONN
*P FrameData[20] I
*I *861:A I *D sky130_fd_sc_hd__clkbuf_1
*CAP
1 FrameData[20] 0.00122542
2 *861:A 0.00122542
3 *861:A *862:A 0.0010588
4 *861:A *871:A 0.000477462
5 *861:A *901:A 2.1576e-05
6 *861:A *910:A 0.000275542
7 *861:A *911:A 0.00035048
8 *861:A *944:A 7.00248e-05
9 *861:A *15:15 4.3635e-05
10 *861:A *188:14 0
11 *861:A *238:20 3.04831e-05
12 *861:A *249:14 0.000103983
13 *294:DIODE *861:A 0.00212509
14 *859:A *861:A 0.000116643
*RES
1 FrameData[20] *861:A 19.6148 
*END

*D_NET *14 0.00526638
*CONN
*P FrameData[21] I
*I *862:A I *D sky130_fd_sc_hd__buf_1
*CAP
1 FrameData[21] 0.000832775
2 *862:A 0.000832775
3 *862:A *870:A 8.40269e-05
4 *862:A *901:A 0.000210544
5 *862:A *911:A 0.000141323
6 *862:A *15:15 0.00204768
7 *859:A *862:A 5.84554e-05
8 *861:A *862:A 0.0010588
*RES
1 FrameData[21] *862:A 12.7708 
*END

*D_NET *15 0.0145484
*CONN
*P FrameData[22] I
*I *272:DIODE I *D sky130_fd_sc_hd__diode_2
*I *863:A I *D sky130_fd_sc_hd__buf_1
*CAP
1 FrameData[22] 0.00218602
2 *272:DIODE 2.47308e-05
3 *863:A 0
4 *15:15 0.00221075
5 *272:DIODE *197:30 0.000124007
6 *15:15 *275:DIODE 0.000274139
7 *15:15 *286:DIODE 0.000163535
8 *15:15 *864:A 0.00135546
9 *15:15 *865:A 8.65961e-05
10 *15:15 *866:A 4.89295e-05
11 *15:15 *867:A 4.99619e-05
12 *15:15 *944:A 0.0034168
13 *15:15 *17:11 0.000898915
14 *15:15 *78:21 2.0198e-05
15 *15:15 *183:24 0.000254737
16 *15:15 *190:14 4.61701e-06
17 *15:15 *197:22 0.000112312
18 *15:15 *197:30 2.42627e-05
19 *15:15 *238:20 0.000278964
20 *292:DIODE *15:15 0.000577779
21 *293:DIODE *272:DIODE 6.52265e-05
22 *293:DIODE *15:15 4.82919e-05
23 *857:A *15:15 0.000123955
24 *859:A *15:15 0.000106915
25 *861:A *15:15 4.3635e-05
26 *862:A *15:15 0.00204768
*RES
1 FrameData[22] *15:15 22.3559 
2 *15:15 *863:A 1.6 
3 *15:15 *272:DIODE 2.74 
*END

*D_NET *16 0.00552518
*CONN