*SPEF "ieee 1481-1999"
*DESIGN "S_term_single"
*DATE "17:05:00 Thursday April 03, 2025"
*VENDOR "The OpenROAD Project"
*PROGRAM "OpenROAD"
*VERSION "87af90f72f3f9be1fdfa1d886f0dd8d8b8f34694"
*DESIGN_FLOW "NAME_SCOPE LOCAL" "PIN_CAP NONE"
*DIVIDER /
*DELIMITER :
*BUS_DELIMITER []
*T_UNIT 1 NS
*C_UNIT 1 PF
*R_UNIT 1 OHM
*L_UNIT 1 HENRY

*NAME_MAP
*1 net106
*2 FrameData[0]
*3 FrameData[10]
*4 FrameData[11]
*5 FrameData[12]
*6 FrameData[13]
*7 FrameData[14]
*8 FrameData[15]
*9 FrameData[16]
*10 FrameData[17]
*11 FrameData[18]
*12 FrameData[19]
*13 FrameData[1]
*14 FrameData[20]
*15 FrameData[21]
*16 FrameData[22]
*17 FrameData[23]
*18 FrameData[24]
*19 FrameData[25]
*20 FrameData[26]
*21 FrameData[27]
*22 FrameData[28]
*23 FrameData[29]
*24 FrameData[2]
*25 FrameData[30]
*26 FrameData[31]
*27 FrameData[3]
*28 FrameData[4]
*29 FrameData[5]
*30 FrameData[6]
*31 FrameData[7]
*32 FrameData[8]
*33 FrameData[9]
*34 FrameData_O[0]
*35 FrameData_O[10]
*36 FrameData_O[11]
*37 FrameData_O[12]
*38 FrameData_O[13]
*39 FrameData_O[14]
*40 FrameData_O[15]
*41 FrameData_O[16]
*42 FrameData_O[17]
*43 FrameData_O[18]
*44 FrameData_O[19]
*45 FrameData_O[1]
*46 FrameData_O[20]
*47 FrameData_O[21]
*48 FrameData_O[22]
*49 FrameData_O[23]
*50 FrameData_O[24]
*51 FrameData_O[25]
*52 FrameData_O[26]
*53 FrameData_O[27]
*54 FrameData_O[28]
*55 FrameData_O[29]
*56 FrameData_O[2]
*57 FrameData_O[30]
*58 FrameData_O[31]
*59 FrameData_O[3]
*60 FrameData_O[4]
*61 FrameData_O[5]
*62 FrameData_O[6]
*63 FrameData_O[7]
*64 FrameData_O[8]
*65 FrameData_O[9]
*66 FrameStrobe[0]
*67 FrameStrobe[10]
*68 FrameStrobe[11]
*69 FrameStrobe[12]
*70 FrameStrobe[13]
*71 FrameStrobe[14]
*72 FrameStrobe[15]
*73 FrameStrobe[16]
*74 FrameStrobe[17]
*75 FrameStrobe[18]
*76 FrameStrobe[19]
*77 FrameStrobe[1]
*78 FrameStrobe[2]
*79 FrameStrobe[3]
*80 FrameStrobe[4]
*81 FrameStrobe[5]
*82 FrameStrobe[6]
*83 FrameStrobe[7]
*84 FrameStrobe[8]
*85 FrameStrobe[9]
*86 FrameStrobe_O[0]
*87 FrameStrobe_O[10]
*88 FrameStrobe_O[11]
*89 FrameStrobe_O[12]
*90 FrameStrobe_O[13]
*91 FrameStrobe_O[14]
*92 FrameStrobe_O[15]
*93 FrameStrobe_O[16]
*94 FrameStrobe_O[17]
*95 FrameStrobe_O[18]
*96 FrameStrobe_O[19]
*97 FrameStrobe_O[1]
*98 FrameStrobe_O[2]
*99 FrameStrobe_O[3]
*100 FrameStrobe_O[4]
*101 FrameStrobe_O[5]
*102 FrameStrobe_O[6]
*103 FrameStrobe_O[7]
*104 FrameStrobe_O[8]
*105 FrameStrobe_O[9]
*106 N1BEG[0]
*107 N1BEG[1]
*108 N1BEG[2]
*109 N1BEG[3]
*110 N2BEG[0]
*111 N2BEG[1]
*112 N2BEG[2]
*113 N2BEG[3]
*114 N2BEG[4]
*115 N2BEG[5]
*116 N2BEG[6]
*117 N2BEG[7]
*118 N2BEGb[0]
*119 N2BEGb[1]
*120 N2BEGb[2]
*121 N2BEGb[3]
*122 N2BEGb[4]
*123 N2BEGb[5]
*124 N2BEGb[6]
*125 N2BEGb[7]
*126 N4BEG[0]
*127 N4BEG[10]
*128 N4BEG[11]
*129 N4BEG[12]
*130 N4BEG[13]
*131 N4BEG[14]
*132 N4BEG[15]
*133 N4BEG[1]
*134 N4BEG[2]
*135 N4BEG[3]
*136 N4BEG[4]
*137 N4BEG[5]
*138 N4BEG[6]
*139 N4BEG[7]
*140 N4BEG[8]
*141 N4BEG[9]
*142 NN4BEG[0]
*143 NN4BEG[10]
*144 NN4BEG[11]
*145 NN4BEG[12]
*146 NN4BEG[13]
*147 NN4BEG[14]
*148 NN4BEG[15]
*149 NN4BEG[1]
*150 NN4BEG[2]
*151 NN4BEG[3]
*152 NN4BEG[4]
*153 NN4BEG[5]
*154 NN4BEG[6]
*155 NN4BEG[7]
*156 NN4BEG[8]
*157 NN4BEG[9]
*158 S1END[0]
*159 S1END[1]
*160 S1END[2]
*161 S1END[3]
*162 S2END[0]
*163 S2END[1]
*164 S2END[2]
*165 S2END[3]
*166 S2END[4]
*167 S2END[5]
*168 S2END[6]
*169 S2END[7]
*170 S2MID[0]
*171 S2MID[1]
*172 S2MID[2]
*173 S2MID[3]
*174 S2MID[4]
*175 S2MID[5]
*176 S2MID[6]
*177 S2MID[7]
*178 S4END[0]
*179 S4END[10]
*180 S4END[11]
*181 S4END[12]
*182 S4END[13]
*183 S4END[14]
*184 S4END[15]
*185 S4END[1]
*186 S4END[2]
*187 S4END[3]
*188 S4END[4]
*189 S4END[5]
*190 S4END[6]
*191 S4END[7]
*192 S4END[8]
*193 S4END[9]
*194 SS4END[0]
*195 SS4END[10]
*196 SS4END[11]
*197 SS4END[12]
*198 SS4END[13]
*199 SS4END[14]
*200 SS4END[15]
*201 SS4END[1]
*202 SS4END[2]
*203 SS4END[3]
*204 SS4END[4]
*205 SS4END[5]
*206 SS4END[6]
*207 SS4END[7]
*208 SS4END[8]
*209 SS4END[9]
*210 UserCLK
*211 UserCLKo
*214 net1
*215 net10
*216 net100
*217 net101
*218 net102
*219 net103
*220 net104
*221 net105
*222 net11
*223 net12
*224 net13
*225 net14
*226 net15
*227 net16
*228 net17
*229 net18
*230 net19
*231 net2
*232 net20
*233 net21
*234 net22
*235 net23
*236 net24
*237 net25
*238 net26
*239 net27
*240 net28
*241 net29
*242 net3
*243 net30
*244 net31
*245 net32
*246 net33
*247 net34
*248 net35
*249 net36
*250 net37
*251 net38
*252 net39
*253 net4
*254 net40
*255 net41
*256 net42
*257 net43
*258 net44
*259 net45
*260 net46
*261 net47
*262 net48
*263 net49
*264 net5
*265 net50
*266 net51
*267 net52
*268 net53
*269 net54
*270 net55
*271 net56
*272 net57
*273 net58
*274 net59
*275 net6
*276 net60
*277 net61
*278 net62
*279 net63
*280 net64
*281 net65
*282 net66
*283 net67
*284 net68
*285 net69
*286 net7
*287 net70
*288 net71
*289 net72
*290 net73
*291 net74
*292 net75
*293 net76
*294 net77
*295 net78
*296 net79
*297 net8
*298 net80
*299 net81
*300 net82
*301 net83
*302 net84
*303 net85
*304 net86
*305 net87
*306 net88
*307 net89
*308 net9
*309 net90
*310 net91
*311 net92
*312 net93
*313 net94
*314 net95
*315 net96
*316 net97
*317 net98
*318 net99
*319 ANTENNA_1
*320 ANTENNA_10
*321 ANTENNA_11
*322 ANTENNA_12
*323 ANTENNA_13
*324 ANTENNA_14
*325 ANTENNA_15
*326 ANTENNA_16
*327 ANTENNA_17
*328 ANTENNA_18
*329 ANTENNA_19
*330 ANTENNA_2
*331 ANTENNA_20
*332 ANTENNA_21
*333 ANTENNA_22
*334 ANTENNA_23
*335 ANTENNA_24
*336 ANTENNA_25
*337 ANTENNA_26
*338 ANTENNA_27
*339 ANTENNA_28
*340 ANTENNA_29
*341 ANTENNA_3
*342 ANTENNA_30
*343 ANTENNA_31
*344 ANTENNA_32
*345 ANTENNA_33
*346 ANTENNA_34
*347 ANTENNA_35
*348 ANTENNA_36
*349 ANTENNA_37
*350 ANTENNA_38
*351 ANTENNA_39
*352 ANTENNA_4
*353 ANTENNA_40
*354 ANTENNA_41
*355 ANTENNA_42
*356 ANTENNA_43
*357 ANTENNA_44
*358 ANTENNA_45
*359 ANTENNA_5
*360 ANTENNA_6
*361 ANTENNA_7
*362 ANTENNA_8
*363 ANTENNA_9
*364 FILLER_0_0
*365 FILLER_0_105
*366 FILLER_0_112
*367 FILLER_0_119
*368 FILLER_0_126
*369 FILLER_0_133
*370 FILLER_0_14
*371 FILLER_0_140
*372 FILLER_0_147
*373 FILLER_0_154
*374 FILLER_0_161
*375 FILLER_0_168
*376 FILLER_0_175
*377 FILLER_0_182
*378 FILLER_0_189
*379 FILLER_0_196
*380 FILLER_0_203
*381 FILLER_0_21
*382 FILLER_0_210
*383 FILLER_0_217
*384 FILLER_0_224
*385 FILLER_0_231
*386 FILLER_0_238
*387 FILLER_0_245
*388 FILLER_0_252
*389 FILLER_0_259
*390 FILLER_0_266
*391 FILLER_0_273
*392 FILLER_0_28
*393 FILLER_0_280
*394 FILLER_0_287
*395 FILLER_0_294
*396 FILLER_0_301
*397 FILLER_0_308
*398 FILLER_0_315
*399 FILLER_0_322
*400 FILLER_0_329
*401 FILLER_0_336
*402 FILLER_0_343
*403 FILLER_0_35
*404 FILLER_0_350
*405 FILLER_0_357
*406 FILLER_0_364
*407 FILLER_0_371
*408 FILLER_0_378
*409 FILLER_0_385
*410 FILLER_0_392
*411 FILLER_0_399
*412 FILLER_0_406
*413 FILLER_0_413
*414 FILLER_0_42
*415 FILLER_0_420
*416 FILLER_0_427
*417 FILLER_0_434
*418 FILLER_0_438
*419 FILLER_0_49
*420 FILLER_0_56
*421 FILLER_0_63
*422 FILLER_0_7
*423 FILLER_0_70
*424 FILLER_0_77
*425 FILLER_0_84
*426 FILLER_0_91
*427 FILLER_0_98
*428 FILLER_10_0
*429 FILLER_10_14
*430 FILLER_10_21
*431 FILLER_10_215
*432 FILLER_10_222
*433 FILLER_10_229
*434 FILLER_10_236
*435 FILLER_10_243
*436 FILLER_10_250
*437 FILLER_10_257
*438 FILLER_10_264
*439 FILLER_10_271
*440 FILLER_10_278
*441 FILLER_10_28
*442 FILLER_10_285
*443 FILLER_10_292
*444 FILLER_10_299
*445 FILLER_10_306
*446 FILLER_10_35
*447 FILLER_10_415
*448 FILLER_10_42
*449 FILLER_10_422
*450 FILLER_10_429
*451 FILLER_10_433
*452 FILLER_10_49
*453 FILLER_10_56
*454 FILLER_10_63
*455 FILLER_10_7
*456 FILLER_10_70
*457 FILLER_10_77
*458 FILLER_10_84
*459 FILLER_10_91
*460 FILLER_10_98
*461 FILLER_1_0
*462 FILLER_1_109
*463 FILLER_1_116
*464 FILLER_1_123
*465 FILLER_1_130
*466 FILLER_1_137
*467 FILLER_1_14
*468 FILLER_1_144
*469 FILLER_1_151
*470 FILLER_1_158
*471 FILLER_1_165
*472 FILLER_1_172
*473 FILLER_1_174
*474 FILLER_1_179
*475 FILLER_1_186
*476 FILLER_1_193
*477 FILLER_1_200
*478 FILLER_1_207
*479 FILLER_1_21
*480 FILLER_1_214
*481 FILLER_1_221
*482 FILLER_1_228
*483 FILLER_1_235
*484 FILLER_1_242
*485 FILLER_1_249
*486 FILLER_1_256
*487 FILLER_1_263
*488 FILLER_1_274
*489 FILLER_1_278
*490 FILLER_1_28
*491 FILLER_1_283
*492 FILLER_1_290
*493 FILLER_1_297
*494 FILLER_1_304
*495 FILLER_1_311
*496 FILLER_1_318
*497 FILLER_1_325
*498 FILLER_1_332
*499 FILLER_1_339
*500 FILLER_1_346
*501 FILLER_1_35
*502 FILLER_1_353
*503 FILLER_1_360
*504 FILLER_1_367
*505 FILLER_1_374
*506 FILLER_1_381
*507 FILLER_1_388
*508 FILLER_1_395
*509 FILLER_1_402
*510 FILLER_1_409
*511 FILLER_1_416
*512 FILLER_1_42
*513 FILLER_1_423
*514 FILLER_1_430
*515 FILLER_1_437
*516 FILLER_1_444
*517 FILLER_1_446
*518 FILLER_1_49
*519 FILLER_1_56
*520 FILLER_1_63
*521 FILLER_1_7
*522 FILLER_1_70
*523 FILLER_1_77
*524 FILLER_1_84
*525 FILLER_1_91
*526 FILLER_1_98
*527 FILLER_2_0
*528 FILLER_2_105
*529 FILLER_2_112
*530 FILLER_2_119
*531 FILLER_2_126
*532 FILLER_2_133
*533 FILLER_2_14
*534 FILLER_2_140
*535 FILLER_2_147
*536 FILLER_2_154
*537 FILLER_2_161
*538 FILLER_2_168
*539 FILLER_2_175
*540 FILLER_2_182
*541 FILLER_2_184
*542 FILLER_2_189
*543 FILLER_2_197
*544 FILLER_2_204
*545 FILLER_2_21
*546 FILLER_2_218
*547 FILLER_2_222
*548 FILLER_2_235
*549 FILLER_2_237
*550 FILLER_2_250
*551 FILLER_2_261
*552 FILLER_2_265
*553 FILLER_2_270
*554 FILLER_2_274
*555 FILLER_2_279
*556 FILLER_2_28
*557 FILLER_2_286
*558 FILLER_2_293
*559 FILLER_2_300
*560 FILLER_2_307
*561 FILLER_2_314
*562 FILLER_2_318
*563 FILLER_2_323
*564 FILLER_2_330
*565 FILLER_2_337
*566 FILLER_2_344
*567 FILLER_2_35
*568 FILLER_2_352
*569 FILLER_2_359
*570 FILLER_2_366
*571 FILLER_2_373
*572 FILLER_2_380
*573 FILLER_2_387
*574 FILLER_2_394
*575 FILLER_2_401
*576 FILLER_2_408
*577 FILLER_2_415
*578 FILLER_2_42
*579 FILLER_2_422
*580 FILLER_2_429
*581 FILLER_2_436
*582 FILLER_2_443
*583 FILLER_2_450
*584 FILLER_2_49
*585 FILLER_2_56
*586 FILLER_2_63
*587 FILLER_2_7
*588 FILLER_2_70
*589 FILLER_2_77
*590 FILLER_2_84
*591 FILLER_2_91
*592 FILLER_2_98
*593 FILLER_3_0
*594 FILLER_3_105
*595 FILLER_3_112
*596 FILLER_3_119
*597 FILLER_3_126
*598 FILLER_3_133
*599 FILLER_3_14
*600 FILLER_3_140
*601 FILLER_3_147
*602 FILLER_3_154
*603 FILLER_3_161
*604 FILLER_3_168
*605 FILLER_3_175
*606 FILLER_3_182
*607 FILLER_3_189
*608 FILLER_3_196
*609 FILLER_3_203
*610 FILLER_3_21
*611 FILLER_3_210
*612 FILLER_3_217
*613 FILLER_3_224
*614 FILLER_3_231
*615 FILLER_3_239
*616 FILLER_3_246
*617 FILLER_3_253
*618 FILLER_3_255
*619 FILLER_3_260
*620 FILLER_3_267
*621 FILLER_3_274
*622 FILLER_3_28
*623 FILLER_3_281
*624 FILLER_3_288
*625 FILLER_3_295
*626 FILLER_3_302
*627 FILLER_3_309
*628 FILLER_3_316
*629 FILLER_3_323
*630 FILLER_3_330
*631 FILLER_3_337
*632 FILLER_3_344
*633 FILLER_3_35
*634 FILLER_3_350
*635 FILLER_3_357
*636 FILLER_3_364
*637 FILLER_3_371
*638 FILLER_3_378
*639 FILLER_3_385
*640 FILLER_3_392
*641 FILLER_3_399
*642 FILLER_3_406
*643 FILLER_3_413
*644 FILLER_3_42
*645 FILLER_3_420
*646 FILLER_3_427
*647 FILLER_3_434
*648 FILLER_3_441
*649 FILLER_3_448
*650 FILLER_3_450
*651 FILLER_3_49
*652 FILLER_3_56
*653 FILLER_3_63
*654 FILLER_3_7
*655 FILLER_3_70
*656 FILLER_3_77
*657 FILLER_3_84
*658 FILLER_3_91
*659 FILLER_3_98
*660 FILLER_4_0
*661 FILLER_4_101
*662 FILLER_4_108
*663 FILLER_4_115
*664 FILLER_4_122
*665 FILLER_4_129
*666 FILLER_4_137
*667 FILLER_4_14
*668 FILLER_4_144
*669 FILLER_4_151
*670 FILLER_4_158
*671 FILLER_4_165
*672 FILLER_4_172
*673 FILLER_4_179
*674 FILLER_4_186
*675 FILLER_4_188
*676 FILLER_4_193
*677 FILLER_4_202
*678 FILLER_4_209
*679 FILLER_4_21
*680 FILLER_4_216
*681 FILLER_4_223
*682 FILLER_4_230
*683 FILLER_4_237
*684 FILLER_4_244
*685 FILLER_4_251
*686 FILLER_4_258
*687 FILLER_4_263
*688 FILLER_4_270
*689 FILLER_4_277
*690 FILLER_4_28
*691 FILLER_4_284
*692 FILLER_4_291
*693 FILLER_4_298
*694 FILLER_4_305
*695 FILLER_4_312
*696 FILLER_4_316
*697 FILLER_4_325
*698 FILLER_4_332
*699 FILLER_4_339
*700 FILLER_4_346
*701 FILLER_4_35
*702 FILLER_4_353
*703 FILLER_4_360
*704 FILLER_4_367
*705 FILLER_4_374
*706 FILLER_4_381
*707 FILLER_4_388
*708 FILLER_4_395
*709 FILLER_4_402
*710 FILLER_4_409
*711 FILLER_4_416
*712 FILLER_4_42
*713 FILLER_4_423
*714 FILLER_4_430
*715 FILLER_4_437
*716 FILLER_4_444
*717 FILLER_4_49
*718 FILLER_4_56
*719 FILLER_4_63
*720 FILLER_4_7
*721 FILLER_4_70
*722 FILLER_4_74
*723 FILLER_4_80
*724 FILLER_4_87
*725 FILLER_4_89
*726 FILLER_4_94
*727 FILLER_5_0
*728 FILLER_5_114
*729 FILLER_5_121
*730 FILLER_5_14
*731 FILLER_5_149
*732 FILLER_5_156
*733 FILLER_5_163
*734 FILLER_5_170
*735 FILLER_5_21
*736 FILLER_5_214
*737 FILLER_5_221
*738 FILLER_5_228
*739 FILLER_5_235
*740 FILLER_5_242
*741 FILLER_5_249
*742 FILLER_5_256
*743 FILLER_5_263
*744 FILLER_5_270
*745 FILLER_5_276
*746 FILLER_5_28
*747 FILLER_5_283
*748 FILLER_5_290
*749 FILLER_5_310
*750 FILLER_5_317
*751 FILLER_5_329
*752 FILLER_5_335
*753 FILLER_5_339
*754 FILLER_5_345
*755 FILLER_5_347
*756 FILLER_5_35
*757 FILLER_5_352
*758 FILLER_5_359
*759 FILLER_5_366
*760 FILLER_5_373
*761 FILLER_5_380
*762 FILLER_5_387
*763 FILLER_5_394
*764 FILLER_5_401
*765 FILLER_5_408
*766 FILLER_5_415
*767 FILLER_5_42
*768 FILLER_5_422
*769 FILLER_5_429
*770 FILLER_5_436
*771 FILLER_5_443
*772 FILLER_5_450
*773 FILLER_5_49
*774 FILLER_5_56
*775 FILLER_5_63
*776 FILLER_5_7
*777 FILLER_5_70
*778 FILLER_5_77
*779 FILLER_5_81
*780 FILLER_6_0
*781 FILLER_6_101
*782 FILLER_6_108
*783 FILLER_6_115
*784 FILLER_6_122
*785 FILLER_6_129
*786 FILLER_6_134
*787 FILLER_6_14
*788 FILLER_6_141
*789 FILLER_6_148
*790 FILLER_6_155
*791 FILLER_6_162
*792 FILLER_6_169
*793 FILLER_6_176
*794 FILLER_6_183
*795 FILLER_6_191
*796 FILLER_6_193
*797 FILLER_6_202
*798 FILLER_6_209
*799 FILLER_6_21
*800 FILLER_6_216
*801 FILLER_6_223
*802 FILLER_6_230
*803 FILLER_6_237
*804 FILLER_6_244
*805 FILLER_6_251
*806 FILLER_6_258
*807 FILLER_6_265
*808 FILLER_6_272
*809 FILLER_6_279
*810 FILLER_6_28
*811 FILLER_6_286
*812 FILLER_6_293
*813 FILLER_6_300
*814 FILLER_6_307
*815 FILLER_6_314
*816 FILLER_6_321
*817 FILLER_6_328
*818 FILLER_6_335
*819 FILLER_6_343
*820 FILLER_6_35
*821 FILLER_6_350
*822 FILLER_6_357
*823 FILLER_6_365
*824 FILLER_6_372
*825 FILLER_6_379
*826 FILLER_6_386
*827 FILLER_6_393
*828 FILLER_6_400
*829 FILLER_6_407
*830 FILLER_6_414
*831 FILLER_6_42
*832 FILLER_6_421
*833 FILLER_6_428
*834 FILLER_6_435
*835 FILLER_6_442
*836 FILLER_6_449
*837 FILLER_6_49
*838 FILLER_6_56
*839 FILLER_6_63
*840 FILLER_6_7
*841 FILLER_6_72
*842 FILLER_6_74
*843 FILLER_6_87
*844 FILLER_6_94
*845 FILLER_7_0
*846 FILLER_7_106
*847 FILLER_7_113
*848 FILLER_7_120
*849 FILLER_7_127
*850 FILLER_7_134
*851 FILLER_7_14
*852 FILLER_7_141
*853 FILLER_7_148
*854 FILLER_7_155
*855 FILLER_7_162
*856 FILLER_7_169
*857 FILLER_7_176
*858 FILLER_7_183
*859 FILLER_7_190
*860 FILLER_7_197
*861 FILLER_7_204
*862 FILLER_7_21
*863 FILLER_7_211
*864 FILLER_7_218
*865 FILLER_7_225
*866 FILLER_7_232
*867 FILLER_7_239
*868 FILLER_7_246
*869 FILLER_7_253
*870 FILLER_7_259
*871 FILLER_7_266
*872 FILLER_7_273
*873 FILLER_7_28
*874 FILLER_7_280
*875 FILLER_7_287
*876 FILLER_7_294
*877 FILLER_7_301
*878 FILLER_7_308
*879 FILLER_7_315
*880 FILLER_7_322
*881 FILLER_7_329
*882 FILLER_7_333
*883 FILLER_7_338
*884 FILLER_7_345
*885 FILLER_7_35
*886 FILLER_7_352
*887 FILLER_7_366
*888 FILLER_7_373
*889 FILLER_7_380
*890 FILLER_7_387
*891 FILLER_7_394
*892 FILLER_7_401
*893 FILLER_7_408
*894 FILLER_7_415
*895 FILLER_7_42
*896 FILLER_7_422
*897 FILLER_7_429
*898 FILLER_7_436
*899 FILLER_7_443
*900 FILLER_7_450
*901 FILLER_7_49
*902 FILLER_7_56
*903 FILLER_7_63
*904 FILLER_7_7
*905 FILLER_7_70
*906 FILLER_7_78
*907 FILLER_7_85
*908 FILLER_7_92
*909 FILLER_7_99
*910 FILLER_8_0
*911 FILLER_8_105
*912 FILLER_8_112
*913 FILLER_8_119
*914 FILLER_8_126
*915 FILLER_8_133
*916 FILLER_8_14
*917 FILLER_8_140
*918 FILLER_8_147
*919 FILLER_8_154
*920 FILLER_8_161
*921 FILLER_8_168
*922 FILLER_8_175
*923 FILLER_8_182
*924 FILLER_8_189
*925 FILLER_8_196
*926 FILLER_8_203
*927 FILLER_8_21
*928 FILLER_8_210
*929 FILLER_8_217
*930 FILLER_8_224
*931 FILLER_8_231
*932 FILLER_8_238
*933 FILLER_8_245
*934 FILLER_8_249
*935 FILLER_8_278
*936 FILLER_8_28
*937 FILLER_8_283
*938 FILLER_8_290
*939 FILLER_8_297
*940 FILLER_8_304
*941 FILLER_8_311
*942 FILLER_8_318
*943 FILLER_8_325
*944 FILLER_8_327
*945 FILLER_8_332
*946 FILLER_8_339
*947 FILLER_8_343
*948 FILLER_8_35
*949 FILLER_8_365
*950 FILLER_8_392
*951 FILLER_8_403
*952 FILLER_8_410
*953 FILLER_8_417
*954 FILLER_8_42
*955 FILLER_8_424
*956 FILLER_8_431
*957 FILLER_8_435
*958 FILLER_8_441
*959 FILLER_8_448
*960 FILLER_8_450
*961 FILLER_8_49
*962 FILLER_8_56
*963 FILLER_8_63
*964 FILLER_8_7
*965 FILLER_8_70
*966 FILLER_8_77
*967 FILLER_8_84
*968 FILLER_8_91
*969 FILLER_8_98
*970 FILLER_9_0
*971 FILLER_9_102
*972 FILLER_9_14
*973 FILLER_9_199
*974 FILLER_9_206
*975 FILLER_9_21
*976 FILLER_9_213
*977 FILLER_9_220
*978 FILLER_9_227
*979 FILLER_9_234
*980 FILLER_9_241
*981 FILLER_9_248
*982 FILLER_9_255
*983 FILLER_9_261
*984 FILLER_9_267
*985 FILLER_9_28
*986 FILLER_9_291
*987 FILLER_9_298
*988 FILLER_9_305
*989 FILLER_9_312
*990 FILLER_9_339
*991 FILLER_9_35
*992 FILLER_9_359
*993 FILLER_9_374
*994 FILLER_9_410
*995 FILLER_9_417
*996 FILLER_9_42
*997 FILLER_9_424
*998 FILLER_9_431
*999 FILLER_9_438
*1000 FILLER_9_442
*1001 FILLER_9_49
*1002 FILLER_9_56
*1003 FILLER_9_63
*1004 FILLER_9_7
*1005 FILLER_9_70
*1006 FILLER_9_77
*1007 FILLER_9_84
*1008 FILLER_9_91
*1009 FILLER_9_98
*1010 S_term_single_106
*1011 _001_
*1012 _002_
*1013 _003_
*1014 _004_
*1015 _005_
*1016 _006_
*1017 _007_
*1018 _008_
*1019 _009_
*1020 _010_
*1021 _011_
*1022 _012_
*1023 _013_
*1024 _014_
*1025 _015_
*1026 _016_
*1027 _017_
*1028 _018_
*1029 _019_
*1030 _020_
*1031 _021_
*1032 _022_
*1033 _023_
*1034 _024_
*1035 _025_
*1036 _026_
*1037 _027_
*1038 _028_
*1039 _029_
*1040 _030_
*1041 _031_
*1042 _032_
*1043 _033_
*1044 _034_
*1045 _035_
*1046 _036_
*1047 _037_
*1048 _038_
*1049 _039_
*1050 _040_
*1051 _041_
*1052 _042_
*1053 _043_
*1054 _044_
*1055 _045_
*1056 _046_
*1057 _047_
*1058 _048_
*1059 _049_
*1060 _050_
*1061 _051_
*1062 _052_
*1063 _053_
*1064 _054_
*1065 _055_
*1066 _056_
*1067 _057_
*1068 _058_
*1069 _059_
*1070 _060_
*1071 _061_
*1072 _062_
*1073 _063_
*1074 _064_
*1075 _065_
*1076 _066_
*1077 _067_
*1078 _068_
*1079 _069_
*1080 _070_
*1081 _071_
*1082 _072_
*1083 _073_
*1084 _074_
*1085 _075_
*1086 _076_
*1087 _077_
*1088 _078_
*1089 _079_
*1090 _080_
*1091 _081_
*1092 _082_
*1093 _083_
*1094 _084_
*1095 _085_
*1096 _086_
*1097 _087_
*1098 _088_
*1099 _089_
*1100 _090_
*1101 _091_
*1102 _092_
*1103 _093_
*1104 _094_
*1105 _095_
*1106 _096_
*1107 _097_
*1108 _098_
*1109 _099_
*1110 _100_
*1111 _101_
*1112 _102_
*1113 _103_
*1114 _104_
*1115 _105_
*1116 output1
*1117 output10
*1118 output100
*1119 output101
*1120 output102
*1121 output103
*1122 output104
*1123 output105
*1124 output11
*1125 output12
*1126 output13
*1127 output14
*1128 output15
*1129 output16
*1130 output17
*1131 output18
*1132 output19
*1133 output2
*1134 output20
*1135 output21
*1136 output22
*1137 output23
*1138 output24
*1139 output25
*1140 output26
*1141 output27
*1142 output28
*1143 output29
*1144 output3
*1145 output30
*1146 output31
*1147 output32
*1148 output33
*1149 output34
*1150 output35
*1151 output36
*1152 output37
*1153 output38
*1154 output39
*1155 output4
*1156 output40
*1157 output41
*1158 output42
*1159 output43
*1160 output44
*1161 output45
*1162 output46
*1163 output47
*1164 output48
*1165 output49
*1166 output5
*1167 output50
*1168 output51
*1169 output52
*1170 output53
*1171 output54
*1172 output55
*1173 output56
*1174 output57
*1175 output58
*1176 output59
*1177 output6
*1178 output60
*1179 output61
*1180 output62
*1181 output63
*1182 output64
*1183 output65
*1184 output66
*1185 output67
*1186 output68
*1187 output69
*1188 output7
*1189 output70
*1190 output71
*1191 output72
*1192 output73
*1193 output74
*1194 output75
*1195 output76
*1196 output77
*1197 output78
*1198 output79
*1199 output8
*1200 output80
*1201 output81
*1202 output82
*1203 output83
*1204 output84
*1205 output85
*1206 output86
*1207 output87
*1208 output88
*1209 output89
*1210 output9
*1211 output90
*1212 output91
*1213 output92
*1214 output93
*1215 output94
*1216 output95
*1217 output96
*1218 output97
*1219 output98
*1220 output99

*PORTS
Co O
FrameData[0] I
FrameData[10] I
FrameData[11] I
FrameData[12] I
FrameData[13] I
FrameData[14] I
FrameData[15] I
FrameData[16] I
FrameData[17] I
FrameData[18] I
FrameData[19] I
FrameData[1] I
FrameData[20] I
FrameData[21] I
FrameData[22] I
FrameData[23] I
FrameData[24] I
FrameData[25] I
FrameData[26] I
FrameData[27] I
FrameData[28] I
FrameData[29] I
FrameData[2] I
FrameData[30] I
FrameData[31] I
FrameData[3] I
FrameData[4] I
FrameData[5] I
FrameData[6] I
FrameData[7] I
FrameData[8] I
FrameData[9] I
FrameData_O[0] O
FrameData_O[10] O
FrameData_O[11] O
FrameData_O[12] O
FrameData_O[13] O
FrameData_O[14] O
FrameData_O[15] O
FrameData_O[16] O
FrameData_O[17] O
FrameData_O[18] O
FrameData_O[19] O
FrameData_O[1] O
FrameData_O[20] O
FrameData_O[21] O
FrameData_O[22] O
FrameData_O[23] O
FrameData_O[24] O
FrameData_O[25] O
FrameData_O[26] O
FrameData_O[27] O
FrameData_O[28] O
FrameData_O[29] O
FrameData_O[2] O
FrameData_O[30] O
FrameData_O[31] O
FrameData_O[3] O
FrameData_O[4] O
FrameData_O[5] O
FrameData_O[6] O
FrameData_O[7] O
FrameData_O[8] O
FrameData_O[9] O
FrameStrobe[0] I
FrameStrobe[10] I
FrameStrobe[11] I
FrameStrobe[12] I
FrameStrobe[13] I
FrameStrobe[14] I
FrameStrobe[15] I
FrameStrobe[16] I
FrameStrobe[17] I
FrameStrobe[18] I
FrameStrobe[19] I
FrameStrobe[1] I
FrameStrobe[2] I
FrameStrobe[3] I
FrameStrobe[4] I
FrameStrobe[5] I
FrameStrobe[6] I
FrameStrobe[7] I
FrameStrobe[8] I
FrameStrobe[9] I
FrameStrobe_O[0] O
FrameStrobe_O[10] O
FrameStrobe_O[11] O
FrameStrobe_O[12] O
FrameStrobe_O[13] O
FrameStrobe_O[14] O
FrameStrobe_O[15] O
FrameStrobe_O[16] O
FrameStrobe_O[17] O
FrameStrobe_O[18] O
FrameStrobe_O[19] O
FrameStrobe_O[1] O
FrameStrobe_O[2] O
FrameStrobe_O[3] O
FrameStrobe_O[4] O
FrameStrobe_O[5] O
FrameStrobe_O[6] O
FrameStrobe_O[7] O
FrameStrobe_O[8] O
FrameStrobe_O[9] O
N1BEG[0] O
N1BEG[1] O
N1BEG[2] O
N1BEG[3] O
N2BEG[0] O
N2BEG[1] O
N2BEG[2] O
N2BEG[3] O
N2BEG[4] O
N2BEG[5] O
N2BEG[6] O
N2BEG[7] O
N2BEGb[0] O
N2BEGb[1] O
N2BEGb[2] O
N2BEGb[3] O
N2BEGb[4] O
N2BEGb[5] O
N2BEGb[6] O
N2BEGb[7] O
N4BEG[0] O
N4BEG[10] O
N4BEG[11] O
N4BEG[12] O
N4BEG[13] O
N4BEG[14] O
N4BEG[15] O
N4BEG[1] O
N4BEG[2] O
N4BEG[3] O
N4BEG[4] O
N4BEG[5] O
N4BEG[6] O
N4BEG[7] O
N4BEG[8] O
N4BEG[9] O
NN4BEG[0] O
NN4BEG[10] O
NN4BEG[11] O
NN4BEG[12] O
NN4BEG[13] O
NN4BEG[14] O
NN4BEG[15] O
NN4BEG[1] O
NN4BEG[2] O
NN4BEG[3] O
NN4BEG[4] O
NN4BEG[5] O
NN4BEG[6] O
NN4BEG[7] O
NN4BEG[8] O
NN4BEG[9] O
S1END[0] I
S1END[1] I
S1END[2] I
S1END[3] I
S2END[0] I
S2END[1] I
S2END[2] I
S2END[3] I
S2END[4] I
S2END[5] I
S2END[6] I
S2END[7] I
S2MID[0] I
S2MID[1] I
S2MID[2] I
S2MID[3] I
S2MID[4] I
S2MID[5] I
S2MID[6] I
S2MID[7] I
S4END[0] I
S4END[10] I
S4END[11] I
S4END[12] I
S4END[13] I
S4END[14] I
S4END[15] I
S4END[1] I
S4END[2] I
S4END[3] I
S4END[4] I
S4END[5] I
S4END[6] I
S4END[7] I
S4END[8] I
S4END[9] I
SS4END[0] I
SS4END[10] I
SS4END[11] I
SS4END[12] I
SS4END[13] I
SS4END[14] I
SS4END[15] I
SS4END[1] I
SS4END[2] I
SS4END[3] I
SS4END[4] I
SS4END[5] I
SS4END[6] I
SS4END[7] I
SS4END[8] I
SS4END[9] I
UserCLK I
UserCLKo O

*D_NET *1 0.00193801
*CONN
*P Co O
*I *1010:L_LO O *D sg13g2_tielo
*CAP
1 Co 0.000870473
2 *1010:L_LO 0.000870473
3 Co NN4BEG[15] 0
4 Co *158:7 0
5 Co *219:14 7.53182e-05
6 Co *311:18 7.51291e-05
7 Co *317:22 4.66137e-05
*RES
1 *1010:L_LO Co 47.004 
*END

*D_NET *2 0.0143749
*CONN
*P FrameData[0] I
*I *1011:A I *D sg13g2_buf_1
*CAP
1 FrameData[0] 0.00416752
2 *1011:A 0
3 *2:21 0.000217814
4 *2:13 0.000897195
5 *2:5 0.0048469
6 *2:5 *13:5 0
7 *2:13 *13:11 0.000827972
8 *2:13 *24:17 0.000763611
9 *2:13 *27:13 0.000567454
10 *2:13 *28:23 0.000699988
11 *2:13 *83:17 0
12 *2:21 *1016:A 0.000604643
13 *2:21 *6:13 0.000604643
14 *2:21 *30:19 0.000177108
*RES
1 FrameData[0] *2:5 47.8924 
2 *2:5 *2:13 49.9395 
3 *2:13 *2:21 44.0067 
4 *2:21 *1011:A 20 
*END

*D_NET *3 0.0180316
*CONN
*P FrameData[10] I
*I *1021:A I *D sg13g2_buf_1
*CAP
1 FrameData[10] 0.0045328
2 *1021:A 0
3 *3:15 0.00134216
4 *3:9 0.00134216
5 *3:5 0.0045328
6 *3:5 *4:5 0
7 *3:5 *8:13 0
8 *3:5 *13:19 0.000922712
9 *3:5 *33:5 0
10 *3:5 *81:9 0.0030508
11 *3:15 *28:33 0
12 *3:15 *31:23 0
13 *3:15 *68:19 0
14 *3:15 *81:19 0.00230817
15 *3:15 *190:21 0
16 *3:15 *265:14 0
17 *3:15 *265:20 0
*RES
1 FrameData[10] *3:5 51.8476 
2 *3:5 *3:9 40 
3 *3:9 *3:15 38.5606 
4 *3:15 *1021:A 40 
*END

*D_NET *4 0.0229543
*CONN
*P FrameData[11] I
*I *1022:A I *D sg13g2_buf_1
*CAP
1 FrameData[11] 0.00465178
2 *1022:A 0.000745854
3 *4:19 0.00132644
4 *4:5 0.00523237
5 *1022:A *8:13 0
6 *1022:A *33:5 0
7 *1022:A *239:6 0
8 *1022:A *243:10 0.0014314
9 *1022:A *244:34 0
10 *1022:A *245:18 4.79124e-05
11 *1022:A *264:10 0
12 *4:5 *5:11 0
13 *4:5 *10:13 0
14 *4:5 *31:17 0.00198511
15 *4:5 *81:9 0
16 *4:5 *83:17 0
17 *4:5 *84:13 0.00108614
18 *4:5 *164:33 0.00289272
19 *4:5 *181:25 0.00188167
20 *4:5 *259:8 0
21 *4:5 *259:12 0
22 *4:19 *1016:A 0.000181422
23 *4:19 *6:13 0
24 *4:19 *28:33 0
25 *4:19 *28:41 0.000569276
26 *4:19 *83:25 0.000240007
27 *4:19 *85:13 0.000110604
28 *4:19 *240:12 0.000314474
29 *4:19 *241:14 0
30 *4:19 *244:34 0
31 *4:19 *264:10 0.000155228
32 *4:19 *265:8 0.000101874
33 *3:5 *4:5 0
*RES
1 FrameData[11] *4:5 59.0164 
2 *4:5 *4:19 47.5293 
3 *4:19 *1022:A 28.3327 
*END

*D_NET *5 0.0262
*CONN
*P FrameData[12] I
*I *1023:A I *D sg13g2_buf_1
*CAP
1 FrameData[12] 0.000755242
2 *1023:A 4.22846e-05
3 *5:13 0.00596457
4 *5:11 0.00667753
5 *1023:A *1025:A 1.54556e-05
6 *5:11 *6:11 0.000437359
7 *5:11 *7:11 0
8 *5:11 *8:11 0
9 *5:11 *10:13 0
10 *5:11 *28:11 0.000275071
11 *5:13 *7:17 0
12 *5:13 *24:17 0
13 *5:13 *30:7 0
14 *5:13 *30:9 0.00709532
15 *5:13 *31:5 0
16 *5:13 *261:6 0.00493717
17 *4:5 *5:11 0
*RES
1 FrameData[12] *5:11 48.0108 
2 *5:11 *5:13 66.847 
3 *5:13 *1023:A 20.5356 
*END

*D_NET *6 0.0307336
*CONN
*P FrameData[13] I
*I *1024:A I *D sg13g2_buf_1
*CAP
1 FrameData[13] 0.000570806
2 *1024:A 2.58576e-05
3 *6:13 0.00285994
4 *6:11 0.00340489
5 *1024:A *1016:A 0
6 *1024:A *28:41 0
7 *6:11 *7:11 0
8 *6:11 *8:11 0
9 *6:11 *10:13 0.000234604
10 *6:13 *1016:A 0
11 *6:13 *27:13 0.000180503
12 *6:13 *28:13 0.0092213
13 *6:13 *28:41 0
14 *6:13 *32:11 0
15 *6:13 *32:23 0.000340982
16 *6:13 *33:5 0.0127244
17 *6:13 *83:25 0.000128351
18 *2:21 *6:13 0.000604643
19 *4:19 *6:13 0
20 *5:11 *6:11 0.000437359
*RES
1 FrameData[13] *6:11 46.6821 
2 *6:11 *6:13 59.1838 
3 *6:13 *1024:A 20.3193 
*END

*D_NET *7 0.0232681
*CONN
*P FrameData[14] I
*I *1025:A I *D sg13g2_buf_1
*CAP
1 FrameData[14] 0.000810873
2 *1025:A 0.000180026
3 *7:17 0.00449602
4 *7:15 0.00617587
5 *7:11 0.00267074
6 *1025:A *238:14 0
7 *1025:A *253:6 0.000368112
8 *1025:A *261:6 0
9 *7:11 *8:11 0
10 *7:11 *10:11 0.000177675
11 *7:11 *28:11 0
12 *7:15 *29:13 0.00160775
13 *7:15 *30:7 0
14 *7:17 *1046:A 0.000500937
15 *7:17 *29:13 0
16 *7:17 *30:7 2.21754e-05
17 *7:17 *30:9 0
18 *7:17 *80:9 0.00305479
19 *7:17 *238:14 0
20 *7:17 *260:8 0.0031877
21 *7:17 *260:10 0
22 *1023:A *1025:A 1.54556e-05
23 *5:11 *7:11 0
24 *5:13 *7:17 0
25 *6:11 *7:11 0
*RES
1 FrameData[14] *7:11 49.3395 
2 *7:11 *7:15 17.4482 
3 *7:15 *7:17 51.7678 
4 *7:17 *1025:A 22.3999 
*END

*D_NET *8 0.0323635
*CONN
*P FrameData[15] I
*I *1026:A I *D sg13g2_buf_1
*CAP
1 FrameData[15] 0.00081949
2 *1026:A 0
3 *8:19 6.84951e-05
4 *8:13 0.0053684
5 *8:11 0.0061194
6 *8:11 *9:5 0
7 *8:11 *10:11 0
8 *8:11 *10:13 0
9 *8:11 *210:7 0
10 *8:13 *13:19 0
11 *8:13 *30:27 0.00156099
12 *8:13 *33:5 0.0135753
13 *8:13 *223:16 0
14 *8:13 *231:6 0.0026545
15 *8:13 *235:24 0
16 *8:13 *241:28 0.00214924
17 *8:13 *242:10 0
18 *8:13 *244:40 0
19 *8:13 *245:18 0
20 *8:19 *70:9 0
21 *8:19 *231:12 4.77421e-05
22 *8:19 *260:14 0
23 *1022:A *8:13 0
24 *3:5 *8:13 0
25 *5:11 *8:11 0
26 *6:11 *8:11 0
27 *7:11 *8:11 0
*RES
1 FrameData[15] *8:11 48.7215 
2 *8:11 *8:13 78.4654 
3 *8:13 *8:19 40.7519 
4 *8:19 *1026:A 20 
*END

*D_NET *9 0.0351927
*CONN
*P FrameData[16] I
*I *1027:A I *D sg13g2_buf_1
*I *319:A I *D sg13g2_antennanp
*I *361:A I *D sg13g2_antennanp
*CAP
1 FrameData[16] 0.00566502
2 *1027:A 0
3 *319:A 3.35048e-05
4 *361:A 0
5 *9:13 0.000282795
6 *9:9 0.000697453
7 *9:5 0.00611318
8 *319:A *240:16 0.000181839
9 *319:A *245:34 0.000181611
10 *9:5 *1029:A 0
11 *9:5 *1060:A 0
12 *9:5 *1115:A 0
13 *9:5 *10:11 0
14 *9:5 *11:11 0
15 *9:5 *11:13 0
16 *9:5 *12:13 0.0140975
17 *9:5 *66:11 0
18 *9:5 *159:19 0.00633991
19 *9:5 *182:13 0.0014559
20 *9:5 *182:29 0
21 *9:5 *215:10 0
22 *9:5 *246:6 0
23 *9:5 *258:10 0
24 *9:9 *71:11 0
25 *9:9 *75:13 0
26 *9:9 *252:14 0
27 *9:9 *256:14 0.000144059
28 *9:13 *71:11 0
29 *8:11 *9:5 0
*RES
1 FrameData[16] *9:5 88.6804 
2 *9:5 *9:9 24.8616 
3 *9:9 *9:13 22.4823 
4 *9:13 *361:A 20 
5 *9:13 *319:A 20.8446 
6 *9:9 *1027:A 40 
*END

*D_NET *10 0.0293567
*CONN
*P FrameData[17] I
*I *1028:A I *D sg13g2_buf_1
*CAP
1 FrameData[17] 0.000492196
2 *1028:A 0
3 *10:21 0.00170777
4 *10:13 0.00612163
5 *10:11 0.00490606
6 *10:11 *11:11 0
7 *10:13 *1049:A 0
8 *10:13 *1074:A 0.000128618
9 *10:13 *1091:A 0.000607001
10 *10:13 *1094:A 0.000180124
11 *10:13 *1115:A 0
12 *10:13 *78:9 0.00012839
13 *10:13 *163:21 0
14 *10:13 *173:25 0
15 *10:13 *174:25 0.00140569
16 *10:13 *176:17 0
17 *10:13 *177:29 0.0016182
18 *10:13 *187:17 0.0015089
19 *10:13 *188:15 0.00230898
20 *10:13 *190:15 0.00193677
21 *10:13 *191:15 0
22 *10:13 *191:23 0
23 *10:13 *221:14 0
24 *10:13 *259:8 0
25 *10:13 *259:12 0
26 *10:13 *280:8 0
27 *10:13 *292:8 0
28 *10:13 *300:6 0.00238632
29 *10:13 *301:22 0.00182839
30 *10:13 *305:12 0
31 *10:21 *1049:A 4.79124e-05
32 *10:21 *67:9 0
33 *10:21 *191:15 0.000229374
34 *10:21 *248:14 0.00119168
35 *10:21 *259:18 0.000210433
36 *10:21 *260:14 0
37 *10:21 *263:6 0
38 *10:21 *267:10 0
39 *4:5 *10:13 0
40 *5:11 *10:13 0
41 *6:11 *10:13 0.000234604
42 *7:11 *10:11 0.000177675
43 *8:11 *10:11 0
44 *8:11 *10:13 0
45 *9:5 *10:11 0
*RES
1 FrameData[17] *10:11 45.6933 
2 *10:11 *10:13 65.1166 
3 *10:13 *10:21 37.8293 