* NGSPICE file created from S_IO.ext - technology: sky130A

* Black-box entry subcircuit for sky130_fd_sc_hd__tapvpwrvgnd_1 abstract view
.subckt sky130_fd_sc_hd__tapvpwrvgnd_1 VGND VPWR
.ends

* Black-box entry subcircuit for sky130_fd_sc_hd__clkbuf_1 abstract view
.subckt sky130_fd_sc_hd__clkbuf_1 A VGND VNB VPB VPWR X
.ends

* Black-box entry subcircuit for sky130_fd_sc_hd__buf_1 abstract view
.subckt sky130_fd_sc_hd__buf_1 A VGND VNB VPB VPWR X
.ends

* Black-box entry subcircuit for sky130_fd_sc_hd__decap_3 abstract view
.subckt sky130_fd_sc_hd__decap_3 VGND VNB VPB VPWR
.ends

* Black-box entry subcircuit for sky130_fd_sc_hd__fill_2 abstract view
.subckt sky130_fd_sc_hd__fill_2 VGND VNB VPB VPWR
.ends

* Black-box entry subcircuit for sky130_fd_sc_hd__dlxtp_1 abstract view
.subckt sky130_fd_sc_hd__dlxtp_1 D GATE VGND VNB VPB VPWR Q
.ends

* Black-box entry subcircuit for sky130_fd_sc_hd__or2_1 abstract view
.subckt sky130_fd_sc_hd__or2_1 A B VGND VNB VPB VPWR X
.ends

* Black-box entry subcircuit for sky130_fd_sc_hd__fill_1 abstract view
.subckt sky130_fd_sc_hd__fill_1 VGND VNB VPB VPWR
.ends

* Black-box entry subcircuit for sky130_fd_sc_hd__mux4_1 abstract view
.subckt sky130_fd_sc_hd__mux4_1 A0 A1 A2 A3 S0 S1 VGND VNB VPB VPWR X
.ends

* Black-box entry subcircuit for sky130_fd_sc_hd__o21ai_1 abstract view
.subckt sky130_fd_sc_hd__o21ai_1 A1 A2 B1 VGND VNB VPB VPWR Y
.ends

* Black-box entry subcircuit for sky130_fd_sc_hd__decap_8 abstract view
.subckt sky130_fd_sc_hd__decap_8 VGND VNB VPB VPWR
.ends

* Black-box entry subcircuit for sky130_fd_sc_hd__diode_2 abstract view
.subckt sky130_fd_sc_hd__diode_2 DIODE VGND VNB VPB VPWR
.ends

* Black-box entry subcircuit for sky130_fd_sc_hd__buf_2 abstract view
.subckt sky130_fd_sc_hd__buf_2 A VGND VNB VPB VPWR X
.ends

* Black-box entry subcircuit for sky130_fd_sc_hd__decap_4 abstract view
.subckt sky130_fd_sc_hd__decap_4 VGND VNB VPB VPWR
.ends

* Black-box entry subcircuit for sky130_fd_sc_hd__clkbuf_2 abstract view
.subckt sky130_fd_sc_hd__clkbuf_2 A VGND VNB VPB VPWR X
.ends

* Black-box entry subcircuit for sky130_fd_sc_hd__or3b_1 abstract view
.subckt sky130_fd_sc_hd__or3b_1 A B C_N VGND VNB VPB VPWR X
.ends

* Black-box entry subcircuit for sky130_fd_sc_hd__decap_6 abstract view
.subckt sky130_fd_sc_hd__decap_6 VGND VNB VPB VPWR
.ends

* Black-box entry subcircuit for sky130_fd_sc_hd__inv_1 abstract view
.subckt sky130_fd_sc_hd__inv_1 A VGND VNB VPB VPWR Y
.ends

* Black-box entry subcircuit for sky130_fd_sc_hd__a211oi_1 abstract view
.subckt sky130_fd_sc_hd__a211oi_1 A1 A2 B1 C1 VGND VNB VPB VPWR Y
.ends

* Black-box entry subcircuit for sky130_ef_sc_hd__decap_12 abstract view
.subckt sky130_ef_sc_hd__decap_12 VPWR VGND VPB VNB
.ends

* Black-box entry subcircuit for sky130_fd_sc_hd__and3b_1 abstract view
.subckt sky130_fd_sc_hd__and3b_1 A_N B C VGND VNB VPB VPWR X
.ends

* Black-box entry subcircuit for sky130_fd_sc_hd__mux2_1 abstract view
.subckt sky130_fd_sc_hd__mux2_1 A0 A1 S VGND VNB VPB VPWR X
.ends

* Black-box entry subcircuit for sky130_fd_sc_hd__clkbuf_16 abstract view
.subckt sky130_fd_sc_hd__clkbuf_16 A VGND VNB VPB VPWR X
.ends

* Black-box entry subcircuit for sky130_fd_sc_hd__dlymetal6s2s_1 abstract view
.subckt sky130_fd_sc_hd__dlymetal6s2s_1 A VGND VNB VPB VPWR X
.ends

* Black-box entry subcircuit for sky130_fd_sc_hd__a22o_1 abstract view
.subckt sky130_fd_sc_hd__a22o_1 A1 A2 B1 B2 VGND VNB VPB VPWR X
.ends

* Black-box entry subcircuit for sky130_fd_sc_hd__inv_2 abstract view
.subckt sky130_fd_sc_hd__inv_2 A VGND VNB VPB VPWR Y
.ends

* Black-box entry subcircuit for sky130_fd_sc_hd__o21a_1 abstract view
.subckt sky130_fd_sc_hd__o21a_1 A1 A2 B1 VGND VNB VPB VPWR X
.ends

* Black-box entry subcircuit for sky130_fd_sc_hd__clkbuf_4 abstract view
.subckt sky130_fd_sc_hd__clkbuf_4 A VGND VNB VPB VPWR X
.ends

* Black-box entry subcircuit for sky130_fd_sc_hd__a41o_1 abstract view
.subckt sky130_fd_sc_hd__a41o_1 A1 A2 A3 A4 B1 VGND VNB VPB VPWR X
.ends

* Black-box entry subcircuit for sky130_fd_sc_hd__nand2_1 abstract view
.subckt sky130_fd_sc_hd__nand2_1 A B VGND VNB VPB VPWR Y
.ends

* Black-box entry subcircuit for sky130_fd_sc_hd__dfxtp_2 abstract view
.subckt sky130_fd_sc_hd__dfxtp_2 CLK D VGND VNB VPB VPWR Q
.ends

* Black-box entry subcircuit for sky130_fd_sc_hd__conb_1 abstract view
.subckt sky130_fd_sc_hd__conb_1 VGND VNB VPB VPWR HI LO
.ends

.subckt S_IO A_I_top A_O_top A_T_top A_config_C_bit0 A_config_C_bit1 A_config_C_bit2
+ A_config_C_bit3 B_I_top B_O_top B_T_top B_config_C_bit0 B_config_C_bit1 B_config_C_bit2
+ B_config_C_bit3 Co FrameData[0] FrameData[10] FrameData[11] FrameData[12] FrameData[13]
+ FrameData[14] FrameData[15] FrameData[16] FrameData[17] FrameData[18] FrameData[19]
+ FrameData[1] FrameData[20] FrameData[21] FrameData[22] FrameData[23] FrameData[24]
+ FrameData[25] FrameData[26] FrameData[27] FrameData[28] FrameData[29] FrameData[2]
+ FrameData[30] FrameData[31] FrameData[3] FrameData[4] FrameData[5] FrameData[6]
+ FrameData[7] FrameData[8] FrameData[9] FrameData_O[0] FrameData_O[10] FrameData_O[11]
+ FrameData_O[12] FrameData_O[13] FrameData_O[14] FrameData_O[15] FrameData_O[16]
+ FrameData_O[17] FrameData_O[18] FrameData_O[19] FrameData_O[1] FrameData_O[20] FrameData_O[21]
+ FrameData_O[22] FrameData_O[23] FrameData_O[24] FrameData_O[25] FrameData_O[26]
+ FrameData_O[27] FrameData_O[28] FrameData_O[29] FrameData_O[2] FrameData_O[30] FrameData_O[31]
+ FrameData_O[3] FrameData_O[4] FrameData_O[5] FrameData_O[6] FrameData_O[7] FrameData_O[8]
+ FrameData_O[9] FrameStrobe[0] FrameStrobe[10] FrameStrobe[11] FrameStrobe[12] FrameStrobe[13]
+ FrameStrobe[14] FrameStrobe[15] FrameStrobe[16] FrameStrobe[17] FrameStrobe[18]
+ FrameStrobe[19] FrameStrobe[1] FrameStrobe[2] FrameStrobe[3] FrameStrobe[4] FrameStrobe[5]
+ FrameStrobe[6] FrameStrobe[7] FrameStrobe[8] FrameStrobe[9] FrameStrobe_O[0] FrameStrobe_O[10]
+ FrameStrobe_O[11] FrameStrobe_O[12] FrameStrobe_O[13] FrameStrobe_O[14] FrameStrobe_O[15]
+ FrameStrobe_O[16] FrameStrobe_O[17] FrameStrobe_O[18] FrameStrobe_O[19] FrameStrobe_O[1]
+ FrameStrobe_O[2] FrameStrobe_O[3] FrameStrobe_O[4] FrameStrobe_O[5] FrameStrobe_O[6]
+ FrameStrobe_O[7] FrameStrobe_O[8] FrameStrobe_O[9] N1BEG[0] N1BEG[1] N1BEG[2] N1BEG[3]
+ N2BEG[0] N2BEG[1] N2BEG[2] N2BEG[3] N2BEG[4] N2BEG[5] N2BEG[6] N2BEG[7] N2BEGb[0]
+ N2BEGb[1] N2BEGb[2] N2BEGb[3] N2BEGb[4] N2BEGb[5] N2BEGb[6] N2BEGb[7] N4BEG[0] N4BEG[10]
+ N4BEG[11] N4BEG[12] N4BEG[13] N4BEG[14] N4BEG[15] N4BEG[1] N4BEG[2] N4BEG[3] N4BEG[4]
+ N4BEG[5] N4BEG[6] N4BEG[7] N4BEG[8] N4BEG[9] NN4BEG[0] NN4BEG[10] NN4BEG[11] NN4BEG[12]
+ NN4BEG[13] NN4BEG[14] NN4BEG[15] NN4BEG[1] NN4BEG[2] NN4BEG[3] NN4BEG[4] NN4BEG[5]
+ NN4BEG[6] NN4BEG[7] NN4BEG[8] NN4BEG[9] S1END[0] S1END[1] S1END[2] S1END[3] S2END[0]
+ S2END[1] S2END[2] S2END[3] S2END[4] S2END[5] S2END[6] S2END[7] S2MID[0] S2MID[1]
+ S2MID[2] S2MID[3] S2MID[4] S2MID[5] S2MID[6] S2MID[7] S4END[0] S4END[10] S4END[11]
+ S4END[12] S4END[13] S4END[14] S4END[15] S4END[1] S4END[2] S4END[3] S4END[4] S4END[5]
+ S4END[6] S4END[7] S4END[8] S4END[9] SS4END[0] SS4END[10] SS4END[11] SS4END[12] SS4END[13]
+ SS4END[14] SS4END[15] SS4END[1] SS4END[2] SS4END[3] SS4END[4] SS4END[5] SS4END[6]
+ SS4END[7] SS4END[8] SS4END[9] UserCLK UserCLKo VGND VPWR
XTAP_TAPCELL_ROW_9_104 VGND VPWR sky130_fd_sc_hd__tapvpwrvgnd_1
X_294_ FrameStrobe[17] VGND VGND VPWR VPWR net155 sky130_fd_sc_hd__clkbuf_1
XTAP_TAPCELL_ROW_8_99 VGND VPWR sky130_fd_sc_hd__tapvpwrvgnd_1
X_346_ Inst_S_IO_switch_matrix.NN4BEG13 VGND VGND VPWR VPWR net207 sky130_fd_sc_hd__buf_1
XPHY_EDGE_ROW_0_Left_12 VGND VGND VPWR VPWR sky130_fd_sc_hd__decap_3
XFILLER_2_368 VGND VGND VPWR VPWR sky130_fd_sc_hd__decap_3
XTAP_TAPCELL_ROW_11_131 VGND VPWR sky130_fd_sc_hd__tapvpwrvgnd_1
XTAP_TAPCELL_ROW_11_120 VGND VPWR sky130_fd_sc_hd__tapvpwrvgnd_1
XFILLER_1_390 VGND VGND VPWR VPWR sky130_fd_sc_hd__fill_2
X_277_ net61 VGND VGND VPWR VPWR net147 sky130_fd_sc_hd__clkbuf_1
X_200_ net17 net56 VGND VGND VPWR VPWR Inst_S_IO_ConfigMem.Inst_frame1_bit22.Q sky130_fd_sc_hd__dlxtp_1
XFILLER_7_449 VGND VGND VPWR VPWR sky130_fd_sc_hd__fill_2
X_062_ Inst_S_IO_ConfigMem.Inst_frame0_bit27.Q _006_ VGND VGND VPWR VPWR _007_ sky130_fd_sc_hd__or2_1
X_131_ net11 net48 VGND VGND VPWR VPWR Inst_S_IO_ConfigMem.Inst_frame3_bit17.Q sky130_fd_sc_hd__dlxtp_1
XFILLER_9_33 VGND VGND VPWR VPWR sky130_fd_sc_hd__fill_1
X_329_ Inst_S_IO_switch_matrix.N4BEG12 VGND VGND VPWR VPWR net190 sky130_fd_sc_hd__buf_1
XFILLER_2_176 VGND VGND VPWR VPWR sky130_fd_sc_hd__fill_2
X_114_ net45 net82 net98 net91 Inst_S_IO_ConfigMem.Inst_frame2_bit6.Q Inst_S_IO_ConfigMem.Inst_frame2_bit7.Q
+ VGND VGND VPWR VPWR Inst_S_IO_switch_matrix.N2BEGb2 sky130_fd_sc_hd__mux4_1
XTAP_TAPCELL_ROW_5_78 VGND VPWR sky130_fd_sc_hd__tapvpwrvgnd_1
XFILLER_3_452 VGND VGND VPWR VPWR sky130_fd_sc_hd__fill_2
X_045_ net44 Inst_S_IO_ConfigMem.Inst_frame0_bit23.Q Inst_S_IO_ConfigMem.Inst_frame0_bit24.Q
+ VGND VGND VPWR VPWR _024_ sky130_fd_sc_hd__o21ai_1
XFILLER_0_433 VGND VGND VPWR VPWR sky130_fd_sc_hd__decap_8
XANTENNA_5 net183 VGND VGND VPWR VPWR sky130_fd_sc_hd__diode_2
Xoutput97 net112 VGND VGND VPWR VPWR B_config_C_bit1 sky130_fd_sc_hd__buf_2
XFILLER_10_307 VGND VGND VPWR VPWR sky130_fd_sc_hd__fill_1
XTAP_TAPCELL_ROW_9_105 VGND VPWR sky130_fd_sc_hd__tapvpwrvgnd_1
XFILLER_9_149 VGND VGND VPWR VPWR sky130_fd_sc_hd__decap_3
XFILLER_5_300 VGND VGND VPWR VPWR sky130_fd_sc_hd__fill_1
X_293_ FrameStrobe[16] VGND VGND VPWR VPWR net154 sky130_fd_sc_hd__clkbuf_1
XFILLER_3_57 VGND VGND VPWR VPWR sky130_fd_sc_hd__decap_4
XFILLER_8_171 VGND VGND VPWR VPWR sky130_fd_sc_hd__decap_4
XTAP_TAPCELL_ROW_11_132 VGND VPWR sky130_fd_sc_hd__tapvpwrvgnd_1
XTAP_TAPCELL_ROW_11_121 VGND VPWR sky130_fd_sc_hd__tapvpwrvgnd_1
X_345_ Inst_S_IO_switch_matrix.NN4BEG12 VGND VGND VPWR VPWR net206 sky130_fd_sc_hd__clkbuf_1
X_276_ net27 VGND VGND VPWR VPWR net139 sky130_fd_sc_hd__buf_1
X_130_ net10 net48 VGND VGND VPWR VPWR Inst_S_IO_ConfigMem.Inst_frame3_bit16.Q sky130_fd_sc_hd__dlxtp_1
X_259_ net8 VGND VGND VPWR VPWR net120 sky130_fd_sc_hd__clkbuf_2
X_328_ Inst_S_IO_switch_matrix.N4BEG11 VGND VGND VPWR VPWR net189 sky130_fd_sc_hd__clkbuf_1
XFILLER_2_144 VGND VGND VPWR VPWR sky130_fd_sc_hd__fill_2
X_061_ net40 net41 net42 net43 Inst_S_IO_ConfigMem.Inst_frame0_bit25.Q Inst_S_IO_ConfigMem.Inst_frame0_bit26.Q
+ VGND VGND VPWR VPWR _006_ sky130_fd_sc_hd__mux4_1
XFILLER_7_258 VGND VGND VPWR VPWR sky130_fd_sc_hd__decap_3
XTAP_TAPCELL_ROW_5_79 VGND VPWR sky130_fd_sc_hd__tapvpwrvgnd_1
X_113_ net44 net81 net97 net90 Inst_S_IO_ConfigMem.Inst_frame2_bit8.Q Inst_S_IO_ConfigMem.Inst_frame2_bit9.Q
+ VGND VGND VPWR VPWR Inst_S_IO_switch_matrix.N2BEGb3 sky130_fd_sc_hd__mux4_1
X_044_ Inst_S_IO_ConfigMem.Inst_frame0_bit23.Q Inst_S_IO_ConfigMem.Inst_frame0_bit24.Q
+ net40 VGND VGND VPWR VPWR _023_ sky130_fd_sc_hd__or3b_1
XANTENNA_6 net204 VGND VGND VPWR VPWR sky130_fd_sc_hd__diode_2
XFILLER_3_294 VGND VGND VPWR VPWR sky130_fd_sc_hd__fill_1
XPHY_EDGE_ROW_6_Right_6 VGND VGND VPWR VPWR sky130_fd_sc_hd__decap_3
XFILLER_0_253 VGND VGND VPWR VPWR sky130_fd_sc_hd__decap_6
Xoutput98 net113 VGND VGND VPWR VPWR B_config_C_bit2 sky130_fd_sc_hd__buf_2
X_292_ FrameStrobe[15] VGND VGND VPWR VPWR net153 sky130_fd_sc_hd__clkbuf_1
XTAP_TAPCELL_ROW_9_106 VGND VPWR sky130_fd_sc_hd__tapvpwrvgnd_1
XFILLER_5_378 VGND VGND VPWR VPWR sky130_fd_sc_hd__fill_2
XTAP_TAPCELL_ROW_11_133 VGND VPWR sky130_fd_sc_hd__tapvpwrvgnd_1
XTAP_TAPCELL_ROW_11_122 VGND VPWR sky130_fd_sc_hd__tapvpwrvgnd_1
X_275_ net26 VGND VGND VPWR VPWR net138 sky130_fd_sc_hd__buf_1
X_344_ Inst_S_IO_switch_matrix.NN4BEG11 VGND VGND VPWR VPWR net205 sky130_fd_sc_hd__buf_1
Xoutput200 net215 VGND VGND VPWR VPWR NN4BEG[6] sky130_fd_sc_hd__buf_2
XFILLER_0_37 VGND VGND VPWR VPWR sky130_fd_sc_hd__fill_1
XFILLER_2_101 VGND VGND VPWR VPWR sky130_fd_sc_hd__fill_1
X_060_ Inst_S_IO_ConfigMem.Inst_frame0_bit31.Q VGND VGND VPWR VPWR _005_ sky130_fd_sc_hd__inv_1
XFILLER_9_57 VGND VGND VPWR VPWR sky130_fd_sc_hd__decap_3
XFILLER_9_46 VGND VGND VPWR VPWR sky130_fd_sc_hd__fill_2
X_327_ Inst_S_IO_switch_matrix.N4BEG10 VGND VGND VPWR VPWR net188 sky130_fd_sc_hd__buf_1
X_189_ net5 net57 VGND VGND VPWR VPWR Inst_S_IO_ConfigMem.Inst_frame1_bit11.Q sky130_fd_sc_hd__dlxtp_1
X_258_ net7 VGND VGND VPWR VPWR net119 sky130_fd_sc_hd__clkbuf_2
X_043_ _004_ _020_ _021_ Inst_S_IO_ConfigMem.Inst_frame0_bit22.Q VGND VGND VPWR VPWR
+ _022_ sky130_fd_sc_hd__a211oi_1
X_112_ net43 net80 net96 net89 Inst_S_IO_ConfigMem.Inst_frame2_bit10.Q Inst_S_IO_ConfigMem.Inst_frame2_bit11.Q
+ VGND VGND VPWR VPWR Inst_S_IO_switch_matrix.N2BEGb4 sky130_fd_sc_hd__mux4_1
XANTENNA_7 net101 VGND VGND VPWR VPWR sky130_fd_sc_hd__diode_2
XFILLER_0_243 VGND VGND VPWR VPWR sky130_fd_sc_hd__decap_8
XFILLER_0_221 VGND VGND VPWR VPWR sky130_fd_sc_hd__decap_3
Xoutput99 net114 VGND VGND VPWR VPWR B_config_C_bit3 sky130_fd_sc_hd__buf_2
Xoutput88 net103 VGND VGND VPWR VPWR A_I_top sky130_fd_sc_hd__buf_2
XTAP_TAPCELL_ROW_2_48 VGND VPWR sky130_fd_sc_hd__tapvpwrvgnd_1
X_291_ FrameStrobe[14] VGND VGND VPWR VPWR net152 sky130_fd_sc_hd__clkbuf_1
XTAP_TAPCELL_ROW_9_107 VGND VPWR sky130_fd_sc_hd__tapvpwrvgnd_1
XFILLER_3_37 VGND VGND VPWR VPWR sky130_fd_sc_hd__decap_3
XTAP_TAPCELL_ROW_11_134 VGND VPWR sky130_fd_sc_hd__tapvpwrvgnd_1
XTAP_TAPCELL_ROW_11_123 VGND VPWR sky130_fd_sc_hd__tapvpwrvgnd_1
X_274_ net24 VGND VGND VPWR VPWR net136 sky130_fd_sc_hd__clkbuf_2
X_343_ Inst_S_IO_switch_matrix.NN4BEG10 VGND VGND VPWR VPWR net204 sky130_fd_sc_hd__buf_1
Xoutput201 net216 VGND VGND VPWR VPWR NN4BEG[7] sky130_fd_sc_hd__buf_2
XFILLER_1_382 VGND VGND VPWR VPWR sky130_fd_sc_hd__decap_8
XFILLER_1_393 VPWR VGND VPWR VGND sky130_ef_sc_hd__decap_12
XFILLER_0_27 VGND VGND VPWR VPWR sky130_fd_sc_hd__fill_1
XFILLER_2_168 VGND VGND VPWR VPWR sky130_fd_sc_hd__decap_8
XPHY_EDGE_ROW_4_Left_16 VGND VGND VPWR VPWR sky130_fd_sc_hd__decap_3
XFILLER_9_25 VGND VGND VPWR VPWR sky130_fd_sc_hd__decap_8
X_188_ net4 net57 VGND VGND VPWR VPWR Inst_S_IO_ConfigMem.Inst_frame1_bit10.Q sky130_fd_sc_hd__dlxtp_1
X_326_ Inst_S_IO_switch_matrix.N4BEG9 VGND VGND VPWR VPWR net202 sky130_fd_sc_hd__clkbuf_1
X_257_ net6 VGND VGND VPWR VPWR net118 sky130_fd_sc_hd__buf_1
X_309_ Inst_S_IO_switch_matrix.N2BEGb0 VGND VGND VPWR VPWR net179 sky130_fd_sc_hd__buf_1
X_042_ Inst_S_IO_ConfigMem.Inst_frame0_bit23.Q Inst_S_IO_ConfigMem.Inst_frame0_bit24.Q
+ net43 VGND VGND VPWR VPWR _021_ sky130_fd_sc_hd__and3b_1
X_111_ net42 net79 net95 net88 Inst_S_IO_ConfigMem.Inst_frame2_bit12.Q Inst_S_IO_ConfigMem.Inst_frame2_bit13.Q
+ VGND VGND VPWR VPWR Inst_S_IO_switch_matrix.N2BEGb5 sky130_fd_sc_hd__mux4_1
XANTENNA_8 net188 VGND VGND VPWR VPWR sky130_fd_sc_hd__diode_2
XFILLER_6_26 VGND VGND VPWR VPWR sky130_fd_sc_hd__fill_2
XTAP_TAPCELL_ROW_6_80 VGND VPWR sky130_fd_sc_hd__tapvpwrvgnd_1
XFILLER_3_274 VGND VGND VPWR VPWR sky130_fd_sc_hd__fill_2
Xoutput89 net104 VGND VGND VPWR VPWR A_T_top sky130_fd_sc_hd__buf_2
XTAP_TAPCELL_ROW_2_49 VGND VPWR sky130_fd_sc_hd__tapvpwrvgnd_1
XTAP_TAPCELL_ROW_9_108 VGND VPWR sky130_fd_sc_hd__tapvpwrvgnd_1
XFILLER_5_325 VGND VGND VPWR VPWR sky130_fd_sc_hd__decap_8
X_290_ FrameStrobe[13] VGND VGND VPWR VPWR net151 sky130_fd_sc_hd__clkbuf_1
XFILLER_8_141 VGND VGND VPWR VPWR sky130_fd_sc_hd__fill_2
XFILLER_4_380 VGND VGND VPWR VPWR sky130_fd_sc_hd__fill_1
XTAP_TAPCELL_ROW_11_135 VGND VPWR sky130_fd_sc_hd__tapvpwrvgnd_1
XTAP_TAPCELL_ROW_11_124 VGND VPWR sky130_fd_sc_hd__tapvpwrvgnd_1
X_273_ net23 VGND VGND VPWR VPWR net135 sky130_fd_sc_hd__buf_1
X_342_ Inst_S_IO_switch_matrix.NN4BEG9 VGND VGND VPWR VPWR net218 sky130_fd_sc_hd__buf_1
Xoutput202 net217 VGND VGND VPWR VPWR NN4BEG[8] sky130_fd_sc_hd__buf_2
XFILLER_5_199 VGND VGND VPWR VPWR sky130_fd_sc_hd__fill_1
XFILLER_11_449 VGND VGND VPWR VPWR sky130_fd_sc_hd__decap_3
X_325_ Inst_S_IO_switch_matrix.N4BEG8 VGND VGND VPWR VPWR net201 sky130_fd_sc_hd__clkbuf_1
XFILLER_6_453 VGND VGND VPWR VPWR sky130_fd_sc_hd__fill_1
X_256_ net5 VGND VGND VPWR VPWR net117 sky130_fd_sc_hd__clkbuf_1
X_187_ net34 net57 VGND VGND VPWR VPWR Inst_S_IO_ConfigMem.Inst_frame1_bit9.Q sky130_fd_sc_hd__dlxtp_1
XFILLER_11_279 VGND VGND VPWR VPWR sky130_fd_sc_hd__fill_1
XFILLER_11_202 VGND VGND VPWR VPWR sky130_fd_sc_hd__fill_2
X_110_ net41 net78 net94 net102 Inst_S_IO_ConfigMem.Inst_frame2_bit14.Q Inst_S_IO_ConfigMem.Inst_frame2_bit15.Q
+ VGND VGND VPWR VPWR Inst_S_IO_switch_matrix.N2BEGb6 sky130_fd_sc_hd__mux4_1
X_041_ net70 net41 Inst_S_IO_ConfigMem.Inst_frame0_bit23.Q VGND VGND VPWR VPWR _020_
+ sky130_fd_sc_hd__mux2_1
XFILLER_3_401 VGND VGND VPWR VPWR sky130_fd_sc_hd__decap_3
X_239_ net24 net60 VGND VGND VPWR VPWR Inst_S_IO_ConfigMem.Inst_frame0_bit29.Q sky130_fd_sc_hd__dlxtp_1
X_308_ Inst_S_IO_switch_matrix.N2BEG7 VGND VGND VPWR VPWR net178 sky130_fd_sc_hd__clkbuf_2
XTAP_TAPCELL_ROW_6_81 VGND VPWR sky130_fd_sc_hd__tapvpwrvgnd_1
XTAP_TAPCELL_ROW_9_109 VGND VPWR sky130_fd_sc_hd__tapvpwrvgnd_1
XTAP_TAPCELL_ROW_3_60 VGND VPWR sky130_fd_sc_hd__tapvpwrvgnd_1
X_341_ Inst_S_IO_switch_matrix.NN4BEG8 VGND VGND VPWR VPWR net217 sky130_fd_sc_hd__buf_1
X_272_ net22 VGND VGND VPWR VPWR net134 sky130_fd_sc_hd__clkbuf_2
XFILLER_2_307 VGND VGND VPWR VPWR sky130_fd_sc_hd__fill_1
XFILLER_2_329 VGND VGND VPWR VPWR sky130_fd_sc_hd__fill_2
XTAP_TAPCELL_ROW_11_125 VGND VPWR sky130_fd_sc_hd__tapvpwrvgnd_1
XFILLER_5_145 VGND VGND VPWR VPWR sky130_fd_sc_hd__fill_2
XFILLER_5_134 VGND VGND VPWR VPWR sky130_fd_sc_hd__fill_1
Xoutput203 net218 VGND VGND VPWR VPWR NN4BEG[9] sky130_fd_sc_hd__buf_2
X_255_ net4 VGND VGND VPWR VPWR net116 sky130_fd_sc_hd__clkbuf_1
XFILLER_6_421 VPWR VGND VPWR VGND sky130_ef_sc_hd__decap_12
X_186_ net33 net56 VGND VGND VPWR VPWR Inst_S_IO_ConfigMem.Inst_frame1_bit8.Q sky130_fd_sc_hd__dlxtp_1
X_324_ Inst_S_IO_switch_matrix.N4BEG7 VGND VGND VPWR VPWR net200 sky130_fd_sc_hd__clkbuf_1
X_040_ net39 net1 Inst_S_IO_ConfigMem.Inst_frame3_bit14.Q VGND VGND VPWR VPWR Inst_S_IO_switch_matrix.N1BEG0
+ sky130_fd_sc_hd__mux2_1
XFILLER_3_413 VPWR VGND VPWR VGND sky130_ef_sc_hd__decap_12
X_307_ Inst_S_IO_switch_matrix.N2BEG6 VGND VGND VPWR VPWR net177 sky130_fd_sc_hd__buf_1
X_238_ net23 net61 VGND VGND VPWR VPWR Inst_S_IO_ConfigMem.Inst_frame0_bit28.Q sky130_fd_sc_hd__dlxtp_1
X_169_ net18 net53 VGND VGND VPWR VPWR Inst_S_IO_ConfigMem.Inst_frame2_bit23.Q sky130_fd_sc_hd__dlxtp_1
XFILLER_0_405 VPWR VGND VPWR VGND sky130_ef_sc_hd__decap_12
XFILLER_0_449 VGND VGND VPWR VPWR sky130_fd_sc_hd__fill_1
XTAP_TAPCELL_ROW_6_82 VGND VPWR sky130_fd_sc_hd__tapvpwrvgnd_1
XFILLER_3_265 VGND VGND VPWR VPWR sky130_fd_sc_hd__fill_1
XFILLER_0_279 VGND VGND VPWR VPWR sky130_fd_sc_hd__fill_1
XFILLER_7_390 VGND VGND VPWR VPWR sky130_fd_sc_hd__fill_2
XTAP_TAPCELL_ROW_3_61 VGND VPWR sky130_fd_sc_hd__tapvpwrvgnd_1
XTAP_TAPCELL_ROW_11_126 VGND VPWR sky130_fd_sc_hd__tapvpwrvgnd_1
X_340_ Inst_S_IO_switch_matrix.NN4BEG7 VGND VGND VPWR VPWR net216 sky130_fd_sc_hd__buf_1
X_271_ net21 VGND VGND VPWR VPWR net133 sky130_fd_sc_hd__clkbuf_2
Xoutput204 net219 VGND VGND VPWR VPWR UserCLKo sky130_fd_sc_hd__buf_1
X_185_ net32 net56 VGND VGND VPWR VPWR Inst_S_IO_ConfigMem.Inst_frame1_bit7.Q sky130_fd_sc_hd__dlxtp_1
Xfanout60 net62 VGND VGND VPWR VPWR net60 sky130_fd_sc_hd__buf_2
XFILLER_6_433 VPWR VGND VPWR VGND sky130_ef_sc_hd__decap_12
X_323_ Inst_S_IO_switch_matrix.N4BEG6 VGND VGND VPWR VPWR net199 sky130_fd_sc_hd__buf_1
X_254_ net34 VGND VGND VPWR VPWR net146 sky130_fd_sc_hd__clkbuf_2
XFILLER_2_138 VGND VGND VPWR VPWR sky130_fd_sc_hd__fill_2
XFILLER_3_425 VPWR VGND VPWR VGND sky130_ef_sc_hd__decap_12
X_168_ net17 net53 VGND VGND VPWR VPWR Inst_S_IO_ConfigMem.Inst_frame2_bit22.Q sky130_fd_sc_hd__dlxtp_1
XFILLER_6_230 VPWR VGND VPWR VGND sky130_ef_sc_hd__decap_12
X_306_ Inst_S_IO_switch_matrix.N2BEG5 VGND VGND VPWR VPWR net176 sky130_fd_sc_hd__clkbuf_1
X_237_ net22 net61 VGND VGND VPWR VPWR Inst_S_IO_ConfigMem.Inst_frame0_bit27.Q sky130_fd_sc_hd__dlxtp_1
X_099_ net36 net74 net90 Inst_B_IO_1_bidirectional_frame_config_pass.Q Inst_S_IO_ConfigMem.Inst_frame1_bit4.Q
+ Inst_S_IO_ConfigMem.Inst_frame1_bit5.Q VGND VGND VPWR VPWR Inst_S_IO_switch_matrix.N4BEG9
+ sky130_fd_sc_hd__mux4_1
XFILLER_1_95 VGND VGND VPWR VPWR sky130_fd_sc_hd__fill_1
XFILLER_1_73 VGND VGND VPWR VPWR sky130_fd_sc_hd__fill_1
XFILLER_0_417 VGND VGND VPWR VPWR sky130_fd_sc_hd__decap_3
XTAP_TAPCELL_ROW_6_83 VGND VPWR sky130_fd_sc_hd__tapvpwrvgnd_1
XFILLER_0_225 VGND VGND VPWR VPWR sky130_fd_sc_hd__decap_3
XPHY_EDGE_ROW_1_Right_1 VGND VGND VPWR VPWR sky130_fd_sc_hd__decap_3
XTAP_TAPCELL_ROW_8_100 VGND VPWR sky130_fd_sc_hd__tapvpwrvgnd_1
XFILLER_4_372 VGND VGND VPWR VPWR sky130_fd_sc_hd__decap_8
XTAP_TAPCELL_ROW_3_62 VGND VPWR sky130_fd_sc_hd__tapvpwrvgnd_1
XTAP_TAPCELL_ROW_11_127 VGND VPWR sky130_fd_sc_hd__tapvpwrvgnd_1
X_270_ net20 VGND VGND VPWR VPWR net132 sky130_fd_sc_hd__clkbuf_2
XFILLER_1_331 VGND VGND VPWR VPWR sky130_fd_sc_hd__decap_4
XFILLER_11_419 VGND VGND VPWR VPWR sky130_fd_sc_hd__fill_1
X_322_ Inst_S_IO_switch_matrix.N4BEG5 VGND VGND VPWR VPWR net198 sky130_fd_sc_hd__clkbuf_1
X_184_ net31 net56 VGND VGND VPWR VPWR Inst_S_IO_ConfigMem.Inst_frame1_bit6.Q sky130_fd_sc_hd__dlxtp_1
XFILLER_6_445 VGND VGND VPWR VPWR sky130_fd_sc_hd__decap_8
Xfanout61 net62 VGND VGND VPWR VPWR net61 sky130_fd_sc_hd__buf_2
XTAP_TAPCELL_ROW_0_30 VGND VPWR sky130_fd_sc_hd__tapvpwrvgnd_1
X_253_ net33 VGND VGND VPWR VPWR net145 sky130_fd_sc_hd__clkbuf_2
Xfanout50 FrameStrobe[3] VGND VGND VPWR VPWR net50 sky130_fd_sc_hd__buf_2
X_098_ net86 net91 net102 Inst_A_IO_1_bidirectional_frame_config_pass.Q Inst_S_IO_ConfigMem.Inst_frame1_bit7.Q
+ Inst_S_IO_ConfigMem.Inst_frame1_bit6.Q VGND VGND VPWR VPWR Inst_S_IO_switch_matrix.N4BEG10
+ sky130_fd_sc_hd__mux4_1
XFILLER_6_242 VGND VGND VPWR VPWR sky130_fd_sc_hd__fill_1
X_305_ Inst_S_IO_switch_matrix.N2BEG4 VGND VGND VPWR VPWR net175 sky130_fd_sc_hd__buf_1
X_167_ net16 net51 VGND VGND VPWR VPWR Inst_S_IO_ConfigMem.Inst_frame2_bit21.Q sky130_fd_sc_hd__dlxtp_1
X_236_ net21 net62 VGND VGND VPWR VPWR Inst_S_IO_ConfigMem.Inst_frame0_bit26.Q sky130_fd_sc_hd__dlxtp_1
XFILLER_3_437 VGND VGND VPWR VPWR sky130_fd_sc_hd__decap_8
XFILLER_3_201 VGND VGND VPWR VPWR sky130_fd_sc_hd__fill_2
XFILLER_3_234 VGND VGND VPWR VPWR sky130_fd_sc_hd__decap_3
XPHY_EDGE_ROW_11_Left_23 VGND VGND VPWR VPWR sky130_fd_sc_hd__decap_3
XTAP_TAPCELL_ROW_6_84 VGND VPWR sky130_fd_sc_hd__tapvpwrvgnd_1
X_219_ net34 net60 VGND VGND VPWR VPWR Inst_S_IO_ConfigMem.Inst_frame0_bit9.Q sky130_fd_sc_hd__dlxtp_1
XFILLER_7_40 VGND VGND VPWR VPWR sky130_fd_sc_hd__decap_4
XTAP_TAPCELL_ROW_8_101 VGND VPWR sky130_fd_sc_hd__tapvpwrvgnd_1
XTAP_TAPCELL_ROW_3_63 VGND VPWR sky130_fd_sc_hd__tapvpwrvgnd_1
XFILLER_4_351 VGND VGND VPWR VPWR sky130_fd_sc_hd__decap_6
XFILLER_4_362 VGND VGND VPWR VPWR sky130_fd_sc_hd__fill_2
XTAP_TAPCELL_ROW_11_128 VGND VPWR sky130_fd_sc_hd__tapvpwrvgnd_1
XFILLER_4_41 VGND VGND VPWR VPWR sky130_fd_sc_hd__fill_2
X_252_ net32 VGND VGND VPWR VPWR net144 sky130_fd_sc_hd__buf_1
Xfanout51 net52 VGND VGND VPWR VPWR net51 sky130_fd_sc_hd__clkbuf_2
XTAP_TAPCELL_ROW_0_31 VGND VPWR sky130_fd_sc_hd__tapvpwrvgnd_1
Xfanout62 FrameStrobe[0] VGND VGND VPWR VPWR net62 sky130_fd_sc_hd__clkbuf_2
X_183_ net30 net55 VGND VGND VPWR VPWR Inst_S_IO_ConfigMem.Inst_frame1_bit5.Q sky130_fd_sc_hd__dlxtp_1
X_321_ Inst_S_IO_switch_matrix.N4BEG4 VGND VGND VPWR VPWR net197 sky130_fd_sc_hd__buf_1
XFILLER_9_295 VGND VGND VPWR VPWR sky130_fd_sc_hd__fill_1
X_235_ net20 net62 VGND VGND VPWR VPWR Inst_S_IO_ConfigMem.Inst_frame0_bit25.Q sky130_fd_sc_hd__dlxtp_1
X_304_ Inst_S_IO_switch_matrix.N2BEG3 VGND VGND VPWR VPWR net174 sky130_fd_sc_hd__clkbuf_1
X_166_ net15 net51 VGND VGND VPWR VPWR Inst_S_IO_ConfigMem.Inst_frame2_bit20.Q sky130_fd_sc_hd__dlxtp_1
XFILLER_6_265 VGND VGND VPWR VPWR sky130_fd_sc_hd__decap_6
XFILLER_1_53 VGND VGND VPWR VPWR sky130_fd_sc_hd__decap_3
X_097_ net85 net90 net101 Inst_B_IO_1_bidirectional_frame_config_pass.Q Inst_S_IO_ConfigMem.Inst_frame1_bit9.Q
+ Inst_S_IO_ConfigMem.Inst_frame1_bit8.Q VGND VGND VPWR VPWR Inst_S_IO_switch_matrix.N4BEG11
+ sky130_fd_sc_hd__mux4_1
XFILLER_10_73 VGND VGND VPWR VPWR sky130_fd_sc_hd__decap_3
X_149_ net28 net35 VGND VGND VPWR VPWR Inst_S_IO_ConfigMem.Inst_frame2_bit3.Q sky130_fd_sc_hd__dlxtp_1
XTAP_TAPCELL_ROW_6_85 VGND VPWR sky130_fd_sc_hd__tapvpwrvgnd_1
XFILLER_3_279 VGND VGND VPWR VPWR sky130_fd_sc_hd__fill_1
X_218_ net33 net60 VGND VGND VPWR VPWR Inst_S_IO_ConfigMem.Inst_frame0_bit8.Q sky130_fd_sc_hd__dlxtp_1
XFILLER_7_393 VGND VGND VPWR VPWR sky130_fd_sc_hd__fill_2
XTAP_TAPCELL_ROW_8_102 VGND VPWR sky130_fd_sc_hd__tapvpwrvgnd_1
XTAP_TAPCELL_ROW_11_129 VGND VPWR sky130_fd_sc_hd__tapvpwrvgnd_1
XFILLER_9_433 VPWR VGND VPWR VGND sky130_ef_sc_hd__decap_12
XFILLER_1_311 VGND VGND VPWR VPWR sky130_fd_sc_hd__decap_4
X_251_ net31 VGND VGND VPWR VPWR net143 sky130_fd_sc_hd__buf_1
Xfanout52 net35 VGND VGND VPWR VPWR net52 sky130_fd_sc_hd__clkbuf_2
X_320_ Inst_S_IO_switch_matrix.N4BEG3 VGND VGND VPWR VPWR net196 sky130_fd_sc_hd__clkbuf_1
XTAP_TAPCELL_ROW_0_32 VGND VPWR sky130_fd_sc_hd__tapvpwrvgnd_1
X_182_ net29 net55 VGND VGND VPWR VPWR Inst_S_IO_ConfigMem.Inst_frame1_bit4.Q sky130_fd_sc_hd__dlxtp_1
XFILLER_9_274 VGND VGND VPWR VPWR sky130_fd_sc_hd__fill_2
X_303_ Inst_S_IO_switch_matrix.N2BEG2 VGND VGND VPWR VPWR net173 sky130_fd_sc_hd__clkbuf_2
XFILLER_10_251 VGND VGND VPWR VPWR sky130_fd_sc_hd__fill_1
X_096_ net37 net98 net82 Inst_A_IO_1_bidirectional_frame_config_pass.Q Inst_S_IO_ConfigMem.Inst_frame1_bit11.Q
+ Inst_S_IO_ConfigMem.Inst_frame1_bit10.Q VGND VGND VPWR VPWR Inst_S_IO_switch_matrix.N4BEG12
+ sky130_fd_sc_hd__mux4_1
X_165_ net13 net52 VGND VGND VPWR VPWR Inst_S_IO_ConfigMem.Inst_frame2_bit19.Q sky130_fd_sc_hd__dlxtp_1
XFILLER_1_21 VPWR VGND VPWR VGND sky130_ef_sc_hd__decap_12
X_234_ net19 net59 VGND VGND VPWR VPWR Inst_S_IO_ConfigMem.Inst_frame0_bit24.Q sky130_fd_sc_hd__dlxtp_1
X_148_ net25 net35 VGND VGND VPWR VPWR Inst_S_IO_ConfigMem.Inst_frame2_bit2.Q sky130_fd_sc_hd__dlxtp_1
XTAP_TAPCELL_ROW_6_86 VGND VPWR sky130_fd_sc_hd__tapvpwrvgnd_1
X_217_ net32 net61 VGND VGND VPWR VPWR Inst_S_IO_ConfigMem.Inst_frame0_bit7.Q sky130_fd_sc_hd__dlxtp_1
XFILLER_3_258 VGND VGND VPWR VPWR sky130_fd_sc_hd__decap_4
X_079_ net84 net86 net73 Inst_B_IO_1_bidirectional_frame_config_pass.Q Inst_S_IO_ConfigMem.Inst_frame0_bit12.Q
+ Inst_S_IO_ConfigMem.Inst_frame0_bit13.Q VGND VGND VPWR VPWR Inst_S_IO_switch_matrix.NN4BEG13
+ sky130_fd_sc_hd__mux4_1
XTAP_TAPCELL_ROW_8_103 VGND VPWR sky130_fd_sc_hd__tapvpwrvgnd_1
XPHY_EDGE_ROW_5_Right_5 VGND VGND VPWR VPWR sky130_fd_sc_hd__decap_3
X_181_ net28 net57 VGND VGND VPWR VPWR Inst_S_IO_ConfigMem.Inst_frame1_bit3.Q sky130_fd_sc_hd__dlxtp_1
Xfanout53 net54 VGND VGND VPWR VPWR net53 sky130_fd_sc_hd__clkbuf_2
XTAP_TAPCELL_ROW_0_33 VGND VPWR sky130_fd_sc_hd__tapvpwrvgnd_1
X_250_ net30 VGND VGND VPWR VPWR net142 sky130_fd_sc_hd__clkbuf_2
X_233_ net18 net60 VGND VGND VPWR VPWR Inst_S_IO_ConfigMem.Inst_frame0_bit23.Q sky130_fd_sc_hd__dlxtp_1
X_164_ net12 net52 VGND VGND VPWR VPWR Inst_S_IO_ConfigMem.Inst_frame2_bit18.Q sky130_fd_sc_hd__dlxtp_1
X_095_ net36 net97 net81 Inst_B_IO_1_bidirectional_frame_config_pass.Q Inst_S_IO_ConfigMem.Inst_frame1_bit13.Q
+ Inst_S_IO_ConfigMem.Inst_frame1_bit12.Q VGND VGND VPWR VPWR Inst_S_IO_switch_matrix.N4BEG13
+ sky130_fd_sc_hd__mux4_1
XFILLER_1_33 VPWR VGND VPWR VGND sky130_ef_sc_hd__decap_12
X_302_ Inst_S_IO_switch_matrix.N2BEG1 VGND VGND VPWR VPWR net172 sky130_fd_sc_hd__clkbuf_1
XFILLER_10_97 VGND VGND VPWR VPWR sky130_fd_sc_hd__fill_1
XTAP_TAPCELL_ROW_6_87 VGND VPWR sky130_fd_sc_hd__tapvpwrvgnd_1
X_216_ net31 net61 VGND VGND VPWR VPWR Inst_S_IO_ConfigMem.Inst_frame0_bit6.Q sky130_fd_sc_hd__dlxtp_1
X_078_ net63 net67 net65 net69 Inst_S_IO_ConfigMem.Inst_frame0_bit15.Q Inst_S_IO_ConfigMem.Inst_frame0_bit14.Q
+ VGND VGND VPWR VPWR Inst_S_IO_switch_matrix.NN4BEG14 sky130_fd_sc_hd__mux4_1
X_147_ net14 net53 VGND VGND VPWR VPWR Inst_S_IO_ConfigMem.Inst_frame2_bit1.Q sky130_fd_sc_hd__dlxtp_1
Xclkbuf_1_0__f_UserCLK_regs clknet_0_UserCLK_regs VGND VGND VPWR VPWR clknet_1_0__leaf_UserCLK_regs
+ sky130_fd_sc_hd__clkbuf_16
XPHY_EDGE_ROW_11_Right_11 VGND VGND VPWR VPWR sky130_fd_sc_hd__decap_3
XFILLER_4_365 VGND VGND VPWR VPWR sky130_fd_sc_hd__decap_4
XFILLER_1_335 VGND VGND VPWR VPWR sky130_fd_sc_hd__fill_1
XFILLER_4_11 VGND VGND VPWR VPWR sky130_fd_sc_hd__decap_3
XFILLER_4_66 VGND VGND VPWR VPWR sky130_fd_sc_hd__fill_2
XFILLER_4_195 VGND VGND VPWR VPWR sky130_fd_sc_hd__fill_1
Xfanout54 net35 VGND VGND VPWR VPWR net54 sky130_fd_sc_hd__dlymetal6s2s_1
X_180_ net25 net57 VGND VGND VPWR VPWR Inst_S_IO_ConfigMem.Inst_frame1_bit2.Q sky130_fd_sc_hd__dlxtp_1
XTAP_TAPCELL_ROW_0_34 VGND VPWR sky130_fd_sc_hd__tapvpwrvgnd_1
XPHY_EDGE_ROW_3_Left_15 VGND VGND VPWR VPWR sky130_fd_sc_hd__decap_3
X_094_ net78 net94 net91 Inst_A_IO_1_bidirectional_frame_config_pass.Q Inst_S_IO_ConfigMem.Inst_frame1_bit14.Q
+ Inst_S_IO_ConfigMem.Inst_frame1_bit15.Q VGND VGND VPWR VPWR Inst_S_IO_switch_matrix.N4BEG14
+ sky130_fd_sc_hd__mux4_1
X_301_ Inst_S_IO_switch_matrix.N2BEG0 VGND VGND VPWR VPWR net171 sky130_fd_sc_hd__buf_1
X_163_ net11 net53 VGND VGND VPWR VPWR Inst_S_IO_ConfigMem.Inst_frame2_bit17.Q sky130_fd_sc_hd__dlxtp_1
X_232_ net17 net60 VGND VGND VPWR VPWR Inst_S_IO_ConfigMem.Inst_frame0_bit22.Q sky130_fd_sc_hd__dlxtp_1
XFILLER_1_45 VGND VGND VPWR VPWR sky130_fd_sc_hd__decap_8
X_215_ net30 net61 VGND VGND VPWR VPWR Inst_S_IO_ConfigMem.Inst_frame0_bit5.Q sky130_fd_sc_hd__dlxtp_1
X_146_ net3 net53 VGND VGND VPWR VPWR Inst_S_IO_ConfigMem.Inst_frame2_bit0.Q sky130_fd_sc_hd__dlxtp_1
X_077_ net64 net68 net66 net70 Inst_S_IO_ConfigMem.Inst_frame0_bit17.Q Inst_S_IO_ConfigMem.Inst_frame0_bit16.Q
+ VGND VGND VPWR VPWR Inst_S_IO_switch_matrix.NN4BEG15 sky130_fd_sc_hd__mux4_1
X_129_ net9 net49 VGND VGND VPWR VPWR Inst_S_IO_ConfigMem.Inst_frame3_bit15.Q sky130_fd_sc_hd__dlxtp_1
Xinput80 SS4END[2] VGND VGND VPWR VPWR net95 sky130_fd_sc_hd__dlymetal6s2s_1
XTAP_TAPCELL_ROW_3_56 VGND VPWR sky130_fd_sc_hd__tapvpwrvgnd_1
Xfanout55 net58 VGND VGND VPWR VPWR net55 sky130_fd_sc_hd__clkbuf_2