* NGSPICE file created from LUT4AB.ext - technology: sky130A

* Black-box entry subcircuit for sky130_fd_sc_hd__dfxtp_1 abstract view
.subckt sky130_fd_sc_hd__dfxtp_1 CLK D VGND VNB VPB VPWR Q
.ends

* Black-box entry subcircuit for sky130_fd_sc_hd__decap_3 abstract view
.subckt sky130_fd_sc_hd__decap_3 VGND VNB VPB VPWR
.ends

* Black-box entry subcircuit for sky130_fd_sc_hd__fill_2 abstract view
.subckt sky130_fd_sc_hd__fill_2 VGND VNB VPB VPWR
.ends

* Black-box entry subcircuit for sky130_fd_sc_hd__dlxtp_1 abstract view
.subckt sky130_fd_sc_hd__dlxtp_1 D GATE VGND VNB VPB VPWR Q
.ends

* Black-box entry subcircuit for sky130_fd_sc_hd__tapvpwrvgnd_1 abstract view
.subckt sky130_fd_sc_hd__tapvpwrvgnd_1 VGND VPWR
.ends

* Black-box entry subcircuit for sky130_ef_sc_hd__decap_12 abstract view
.subckt sky130_ef_sc_hd__decap_12 VPWR VGND VPB VNB
.ends

* Black-box entry subcircuit for sky130_fd_sc_hd__mux2_4 abstract view
.subckt sky130_fd_sc_hd__mux2_4 A0 A1 S VGND VNB VPB VPWR X
.ends

* Black-box entry subcircuit for sky130_fd_sc_hd__fill_1 abstract view
.subckt sky130_fd_sc_hd__fill_1 VGND VNB VPB VPWR
.ends

* Black-box entry subcircuit for sky130_fd_sc_hd__mux4_2 abstract view
.subckt sky130_fd_sc_hd__mux4_2 A0 A1 A2 A3 S0 S1 VGND VNB VPB VPWR X
.ends

* Black-box entry subcircuit for sky130_fd_sc_hd__mux4_1 abstract view
.subckt sky130_fd_sc_hd__mux4_1 A0 A1 A2 A3 S0 S1 VGND VNB VPB VPWR X
.ends

* Black-box entry subcircuit for sky130_fd_sc_hd__o2bb2a_1 abstract view
.subckt sky130_fd_sc_hd__o2bb2a_1 A1_N A2_N B1 B2 VGND VNB VPB VPWR X
.ends

* Black-box entry subcircuit for sky130_fd_sc_hd__decap_4 abstract view
.subckt sky130_fd_sc_hd__decap_4 VGND VNB VPB VPWR
.ends

* Black-box entry subcircuit for sky130_fd_sc_hd__buf_2 abstract view
.subckt sky130_fd_sc_hd__buf_2 A VGND VNB VPB VPWR X
.ends

* Black-box entry subcircuit for sky130_fd_sc_hd__buf_1 abstract view
.subckt sky130_fd_sc_hd__buf_1 A VGND VNB VPB VPWR X
.ends

* Black-box entry subcircuit for sky130_fd_sc_hd__clkbuf_2 abstract view
.subckt sky130_fd_sc_hd__clkbuf_2 A VGND VNB VPB VPWR X
.ends

* Black-box entry subcircuit for sky130_fd_sc_hd__o21a_1 abstract view
.subckt sky130_fd_sc_hd__o21a_1 A1 A2 B1 VGND VNB VPB VPWR X
.ends

* Black-box entry subcircuit for sky130_fd_sc_hd__decap_8 abstract view
.subckt sky130_fd_sc_hd__decap_8 VGND VNB VPB VPWR
.ends

* Black-box entry subcircuit for sky130_fd_sc_hd__inv_1 abstract view
.subckt sky130_fd_sc_hd__inv_1 A VGND VNB VPB VPWR Y
.ends

* Black-box entry subcircuit for sky130_fd_sc_hd__o22a_1 abstract view
.subckt sky130_fd_sc_hd__o22a_1 A1 A2 B1 B2 VGND VNB VPB VPWR X
.ends

* Black-box entry subcircuit for sky130_fd_sc_hd__buf_4 abstract view
.subckt sky130_fd_sc_hd__buf_4 A VGND VNB VPB VPWR X
.ends

* Black-box entry subcircuit for sky130_fd_sc_hd__buf_6 abstract view
.subckt sky130_fd_sc_hd__buf_6 A VGND VNB VPB VPWR X
.ends

* Black-box entry subcircuit for sky130_fd_sc_hd__mux2_1 abstract view
.subckt sky130_fd_sc_hd__mux2_1 A0 A1 S VGND VNB VPB VPWR X
.ends

* Black-box entry subcircuit for sky130_fd_sc_hd__inv_6 abstract view
.subckt sky130_fd_sc_hd__inv_6 A VGND VNB VPB VPWR Y
.ends

* Black-box entry subcircuit for sky130_fd_sc_hd__and2b_1 abstract view
.subckt sky130_fd_sc_hd__and2b_1 A_N B VGND VNB VPB VPWR X
.ends

* Black-box entry subcircuit for sky130_fd_sc_hd__a311oi_1 abstract view
.subckt sky130_fd_sc_hd__a311oi_1 A1 A2 A3 B1 C1 VGND VNB VPB VPWR Y
.ends

* Black-box entry subcircuit for sky130_fd_sc_hd__a21bo_1 abstract view
.subckt sky130_fd_sc_hd__a21bo_1 A1 A2 B1_N VGND VNB VPB VPWR X
.ends

* Black-box entry subcircuit for sky130_fd_sc_hd__a22o_1 abstract view
.subckt sky130_fd_sc_hd__a22o_1 A1 A2 B1 B2 VGND VNB VPB VPWR X
.ends

* Black-box entry subcircuit for sky130_fd_sc_hd__decap_6 abstract view
.subckt sky130_fd_sc_hd__decap_6 VGND VNB VPB VPWR
.ends

* Black-box entry subcircuit for sky130_fd_sc_hd__diode_2 abstract view
.subckt sky130_fd_sc_hd__diode_2 DIODE VGND VNB VPB VPWR
.ends

* Black-box entry subcircuit for sky130_fd_sc_hd__dlygate4sd1_1 abstract view
.subckt sky130_fd_sc_hd__dlygate4sd1_1 A VGND VNB VPB VPWR X
.ends

* Black-box entry subcircuit for sky130_fd_sc_hd__o221a_1 abstract view
.subckt sky130_fd_sc_hd__o221a_1 A1 A2 B1 B2 C1 VGND VNB VPB VPWR X
.ends

* Black-box entry subcircuit for sky130_fd_sc_hd__clkbuf_4 abstract view
.subckt sky130_fd_sc_hd__clkbuf_4 A VGND VNB VPB VPWR X
.ends

* Black-box entry subcircuit for sky130_fd_sc_hd__nand2b_1 abstract view
.subckt sky130_fd_sc_hd__nand2b_1 A_N B VGND VNB VPB VPWR Y
.ends

* Black-box entry subcircuit for sky130_fd_sc_hd__buf_8 abstract view
.subckt sky130_fd_sc_hd__buf_8 A VGND VNB VPB VPWR X
.ends

* Black-box entry subcircuit for sky130_fd_sc_hd__a2bb2o_4 abstract view
.subckt sky130_fd_sc_hd__a2bb2o_4 A1_N A2_N B1 B2 VGND VNB VPB VPWR X
.ends

* Black-box entry subcircuit for sky130_fd_sc_hd__a21oi_1 abstract view
.subckt sky130_fd_sc_hd__a21oi_1 A1 A2 B1 VGND VNB VPB VPWR Y
.ends

* Black-box entry subcircuit for sky130_fd_sc_hd__nand2_1 abstract view
.subckt sky130_fd_sc_hd__nand2_1 A B VGND VNB VPB VPWR Y
.ends

* Black-box entry subcircuit for sky130_fd_sc_hd__clkbuf_1 abstract view
.subckt sky130_fd_sc_hd__clkbuf_1 A VGND VNB VPB VPWR X
.ends

* Black-box entry subcircuit for sky130_fd_sc_hd__dlymetal6s2s_1 abstract view
.subckt sky130_fd_sc_hd__dlymetal6s2s_1 A VGND VNB VPB VPWR X
.ends

* Black-box entry subcircuit for sky130_fd_sc_hd__o21a_4 abstract view
.subckt sky130_fd_sc_hd__o21a_4 A1 A2 B1 VGND VNB VPB VPWR X
.ends

* Black-box entry subcircuit for sky130_fd_sc_hd__or2_1 abstract view
.subckt sky130_fd_sc_hd__or2_1 A B VGND VNB VPB VPWR X
.ends

* Black-box entry subcircuit for sky130_fd_sc_hd__a21o_1 abstract view
.subckt sky130_fd_sc_hd__a21o_1 A1 A2 B1 VGND VNB VPB VPWR X
.ends

* Black-box entry subcircuit for sky130_fd_sc_hd__a31o_1 abstract view
.subckt sky130_fd_sc_hd__a31o_1 A1 A2 A3 B1 VGND VNB VPB VPWR X
.ends

* Black-box entry subcircuit for sky130_fd_sc_hd__a32o_1 abstract view
.subckt sky130_fd_sc_hd__a32o_1 A1 A2 A3 B1 B2 VGND VNB VPB VPWR X
.ends

* Black-box entry subcircuit for sky130_fd_sc_hd__dlygate4sd3_1 abstract view
.subckt sky130_fd_sc_hd__dlygate4sd3_1 A VGND VNB VPB VPWR X
.ends

* Black-box entry subcircuit for sky130_fd_sc_hd__o31a_1 abstract view
.subckt sky130_fd_sc_hd__o31a_1 A1 A2 A3 B1 VGND VNB VPB VPWR X
.ends

* Black-box entry subcircuit for sky130_fd_sc_hd__or2_4 abstract view
.subckt sky130_fd_sc_hd__or2_4 A B VGND VNB VPB VPWR X
.ends

* Black-box entry subcircuit for sky130_fd_sc_hd__o21ai_1 abstract view
.subckt sky130_fd_sc_hd__o21ai_1 A1 A2 B1 VGND VNB VPB VPWR Y
.ends

* Black-box entry subcircuit for sky130_fd_sc_hd__o21ba_1 abstract view
.subckt sky130_fd_sc_hd__o21ba_1 A1 A2 B1_N VGND VNB VPB VPWR X
.ends

* Black-box entry subcircuit for sky130_fd_sc_hd__o22a_4 abstract view
.subckt sky130_fd_sc_hd__o22a_4 A1 A2 B1 B2 VGND VNB VPB VPWR X
.ends

* Black-box entry subcircuit for sky130_fd_sc_hd__buf_12 abstract view
.subckt sky130_fd_sc_hd__buf_12 A VGND VNB VPB VPWR X
.ends

* Black-box entry subcircuit for sky130_fd_sc_hd__a311o_1 abstract view
.subckt sky130_fd_sc_hd__a311o_1 A1 A2 A3 B1 C1 VGND VNB VPB VPWR X
.ends

* Black-box entry subcircuit for sky130_fd_sc_hd__o211a_1 abstract view
.subckt sky130_fd_sc_hd__o211a_1 A1 A2 B1 C1 VGND VNB VPB VPWR X
.ends

* Black-box entry subcircuit for sky130_fd_sc_hd__a211o_1 abstract view
.subckt sky130_fd_sc_hd__a211o_1 A1 A2 B1 C1 VGND VNB VPB VPWR X
.ends

* Black-box entry subcircuit for sky130_fd_sc_hd__o31a_4 abstract view
.subckt sky130_fd_sc_hd__o31a_4 A1 A2 A3 B1 VGND VNB VPB VPWR X
.ends

* Black-box entry subcircuit for sky130_fd_sc_hd__inv_2 abstract view
.subckt sky130_fd_sc_hd__inv_2 A VGND VNB VPB VPWR Y
.ends

* Black-box entry subcircuit for sky130_fd_sc_hd__and2_1 abstract view
.subckt sky130_fd_sc_hd__and2_1 A B VGND VNB VPB VPWR X
.ends

* Black-box entry subcircuit for sky130_fd_sc_hd__nand2_4 abstract view
.subckt sky130_fd_sc_hd__nand2_4 A B VGND VNB VPB VPWR Y
.ends

* Black-box entry subcircuit for sky130_fd_sc_hd__a221o_1 abstract view
.subckt sky130_fd_sc_hd__a221o_1 A1 A2 B1 B2 C1 VGND VNB VPB VPWR X
.ends

* Black-box entry subcircuit for sky130_fd_sc_hd__mux2_2 abstract view
.subckt sky130_fd_sc_hd__mux2_2 A0 A1 S VGND VNB VPB VPWR X
.ends

* Black-box entry subcircuit for sky130_fd_sc_hd__nor2_4 abstract view
.subckt sky130_fd_sc_hd__nor2_4 A B VGND VNB VPB VPWR Y
.ends

* Black-box entry subcircuit for sky130_fd_sc_hd__clkbuf_16 abstract view
.subckt sky130_fd_sc_hd__clkbuf_16 A VGND VNB VPB VPWR X
.ends

* Black-box entry subcircuit for sky130_fd_sc_hd__o21ai_4 abstract view
.subckt sky130_fd_sc_hd__o21ai_4 A1 A2 B1 VGND VNB VPB VPWR Y
.ends

* Black-box entry subcircuit for sky130_fd_sc_hd__or2_2 abstract view
.subckt sky130_fd_sc_hd__or2_2 A B VGND VNB VPB VPWR X
.ends

* Black-box entry subcircuit for sky130_fd_sc_hd__a22o_4 abstract view
.subckt sky130_fd_sc_hd__a22o_4 A1 A2 B1 B2 VGND VNB VPB VPWR X
.ends

* Black-box entry subcircuit for sky130_fd_sc_hd__a21oi_2 abstract view
.subckt sky130_fd_sc_hd__a21oi_2 A1 A2 B1 VGND VNB VPB VPWR Y
.ends

* Black-box entry subcircuit for sky130_fd_sc_hd__a2bb2o_1 abstract view
.subckt sky130_fd_sc_hd__a2bb2o_1 A1_N A2_N B1 B2 VGND VNB VPB VPWR X
.ends

* Black-box entry subcircuit for sky130_fd_sc_hd__nand2_2 abstract view
.subckt sky130_fd_sc_hd__nand2_2 A B VGND VNB VPB VPWR Y
.ends

* Black-box entry subcircuit for sky130_fd_sc_hd__and3_1 abstract view
.subckt sky130_fd_sc_hd__and3_1 A B C VGND VNB VPB VPWR X
.ends

* Black-box entry subcircuit for sky130_fd_sc_hd__or3b_1 abstract view
.subckt sky130_fd_sc_hd__or3b_1 A B C_N VGND VNB VPB VPWR X
.ends

* Black-box entry subcircuit for sky130_fd_sc_hd__or3b_4 abstract view
.subckt sky130_fd_sc_hd__or3b_4 A B C_N VGND VNB VPB VPWR X
.ends

* Black-box entry subcircuit for sky130_fd_sc_hd__and2_4 abstract view
.subckt sky130_fd_sc_hd__and2_4 A B VGND VNB VPB VPWR X
.ends

* Black-box entry subcircuit for sky130_fd_sc_hd__o2bb2a_4 abstract view
.subckt sky130_fd_sc_hd__o2bb2a_4 A1_N A2_N B1 B2 VGND VNB VPB VPWR X
.ends

* Black-box entry subcircuit for sky130_fd_sc_hd__o21ai_2 abstract view
.subckt sky130_fd_sc_hd__o21ai_2 A1 A2 B1 VGND VNB VPB VPWR Y
.ends

* Black-box entry subcircuit for sky130_fd_sc_hd__nor2_2 abstract view
.subckt sky130_fd_sc_hd__nor2_2 A B VGND VNB VPB VPWR Y
.ends

* Black-box entry subcircuit for sky130_fd_sc_hd__nor2_1 abstract view
.subckt sky130_fd_sc_hd__nor2_1 A B VGND VNB VPB VPWR Y
.ends

.subckt LUT4AB Ci Co E1BEG[0] E1BEG[1] E1BEG[2] E1BEG[3] E1END[0] E1END[1] E1END[2]
+ E1END[3] E2BEG[0] E2BEG[1] E2BEG[2] E2BEG[3] E2BEG[4] E2BEG[5] E2BEG[6] E2BEG[7]
+ E2BEGb[0] E2BEGb[1] E2BEGb[2] E2BEGb[3] E2BEGb[4] E2BEGb[5] E2BEGb[6] E2BEGb[7]
+ E2END[0] E2END[1] E2END[2] E2END[3] E2END[4] E2END[5] E2END[6] E2END[7] E2MID[0]
+ E2MID[1] E2MID[2] E2MID[3] E2MID[4] E2MID[5] E2MID[6] E2MID[7] E6BEG[0] E6BEG[10]
+ E6BEG[11] E6BEG[1] E6BEG[2] E6BEG[3] E6BEG[4] E6BEG[5] E6BEG[6] E6BEG[7] E6BEG[8]
+ E6BEG[9] E6END[0] E6END[10] E6END[11] E6END[1] E6END[2] E6END[3] E6END[4] E6END[5]
+ E6END[6] E6END[7] E6END[8] E6END[9] EE4BEG[0] EE4BEG[10] EE4BEG[11] EE4BEG[12] EE4BEG[13]
+ EE4BEG[14] EE4BEG[15] EE4BEG[1] EE4BEG[2] EE4BEG[3] EE4BEG[4] EE4BEG[5] EE4BEG[6]
+ EE4BEG[7] EE4BEG[8] EE4BEG[9] EE4END[0] EE4END[10] EE4END[11] EE4END[12] EE4END[13]
+ EE4END[14] EE4END[15] EE4END[1] EE4END[2] EE4END[3] EE4END[4] EE4END[5] EE4END[6]
+ EE4END[7] EE4END[8] EE4END[9] FrameData[0] FrameData[10] FrameData[11] FrameData[12]
+ FrameData[13] FrameData[14] FrameData[15] FrameData[16] FrameData[17] FrameData[18]
+ FrameData[19] FrameData[1] FrameData[20] FrameData[21] FrameData[22] FrameData[23]
+ FrameData[24] FrameData[25] FrameData[26] FrameData[27] FrameData[28] FrameData[29]
+ FrameData[2] FrameData[30] FrameData[31] FrameData[3] FrameData[4] FrameData[5]
+ FrameData[6] FrameData[7] FrameData[8] FrameData[9] FrameData_O[0] FrameData_O[10]
+ FrameData_O[11] FrameData_O[12] FrameData_O[13] FrameData_O[14] FrameData_O[15]
+ FrameData_O[16] FrameData_O[17] FrameData_O[18] FrameData_O[19] FrameData_O[1] FrameData_O[20]
+ FrameData_O[21] FrameData_O[22] FrameData_O[23] FrameData_O[24] FrameData_O[25]
+ FrameData_O[26] FrameData_O[27] FrameData_O[28] FrameData_O[29] FrameData_O[2] FrameData_O[30]
+ FrameData_O[31] FrameData_O[3] FrameData_O[4] FrameData_O[5] FrameData_O[6] FrameData_O[7]
+ FrameData_O[8] FrameData_O[9] FrameStrobe[0] FrameStrobe[10] FrameStrobe[11] FrameStrobe[12]
+ FrameStrobe[13] FrameStrobe[14] FrameStrobe[15] FrameStrobe[16] FrameStrobe[17]
+ FrameStrobe[18] FrameStrobe[19] FrameStrobe[1] FrameStrobe[2] FrameStrobe[3] FrameStrobe[4]
+ FrameStrobe[5] FrameStrobe[6] FrameStrobe[7] FrameStrobe[8] FrameStrobe[9] FrameStrobe_O[0]
+ FrameStrobe_O[10] FrameStrobe_O[11] FrameStrobe_O[12] FrameStrobe_O[13] FrameStrobe_O[14]
+ FrameStrobe_O[15] FrameStrobe_O[16] FrameStrobe_O[17] FrameStrobe_O[18] FrameStrobe_O[19]
+ FrameStrobe_O[1] FrameStrobe_O[2] FrameStrobe_O[3] FrameStrobe_O[4] FrameStrobe_O[5]
+ FrameStrobe_O[6] FrameStrobe_O[7] FrameStrobe_O[8] FrameStrobe_O[9] N1BEG[0] N1BEG[1]
+ N1BEG[2] N1BEG[3] N1END[0] N1END[1] N1END[2] N1END[3] N2BEG[0] N2BEG[1] N2BEG[2]
+ N2BEG[3] N2BEG[4] N2BEG[5] N2BEG[6] N2BEG[7] N2BEGb[0] N2BEGb[1] N2BEGb[2] N2BEGb[3]
+ N2BEGb[4] N2BEGb[5] N2BEGb[6] N2BEGb[7] N2END[0] N2END[1] N2END[2] N2END[3] N2END[4]
+ N2END[5] N2END[6] N2END[7] N2MID[0] N2MID[1] N2MID[2] N2MID[3] N2MID[4] N2MID[5]
+ N2MID[6] N2MID[7] N4BEG[0] N4BEG[10] N4BEG[11] N4BEG[12] N4BEG[13] N4BEG[14] N4BEG[15]
+ N4BEG[1] N4BEG[2] N4BEG[3] N4BEG[4] N4BEG[5] N4BEG[6] N4BEG[7] N4BEG[8] N4BEG[9]
+ N4END[0] N4END[10] N4END[11] N4END[12] N4END[13] N4END[14] N4END[15] N4END[1] N4END[2]
+ N4END[3] N4END[4] N4END[5] N4END[6] N4END[7] N4END[8] N4END[9] NN4BEG[0] NN4BEG[10]
+ NN4BEG[11] NN4BEG[12] NN4BEG[13] NN4BEG[14] NN4BEG[15] NN4BEG[1] NN4BEG[2] NN4BEG[3]
+ NN4BEG[4] NN4BEG[5] NN4BEG[6] NN4BEG[7] NN4BEG[8] NN4BEG[9] NN4END[0] NN4END[10]
+ NN4END[11] NN4END[12] NN4END[13] NN4END[14] NN4END[15] NN4END[1] NN4END[2] NN4END[3]
+ NN4END[4] NN4END[5] NN4END[6] NN4END[7] NN4END[8] NN4END[9] S1BEG[0] S1BEG[1] S1BEG[2]
+ S1BEG[3] S1END[0] S1END[1] S1END[2] S1END[3] S2BEG[0] S2BEG[1] S2BEG[2] S2BEG[3]
+ S2BEG[4] S2BEG[5] S2BEG[6] S2BEG[7] S2BEGb[0] S2BEGb[1] S2BEGb[2] S2BEGb[3] S2BEGb[4]
+ S2BEGb[5] S2BEGb[6] S2BEGb[7] S2END[0] S2END[1] S2END[2] S2END[3] S2END[4] S2END[5]
+ S2END[6] S2END[7] S2MID[0] S2MID[1] S2MID[2] S2MID[3] S2MID[4] S2MID[5] S2MID[6]
+ S2MID[7] S4BEG[0] S4BEG[10] S4BEG[11] S4BEG[12] S4BEG[13] S4BEG[14] S4BEG[15] S4BEG[1]
+ S4BEG[2] S4BEG[3] S4BEG[4] S4BEG[5] S4BEG[6] S4BEG[7] S4BEG[8] S4BEG[9] S4END[0]
+ S4END[10] S4END[11] S4END[12] S4END[13] S4END[14] S4END[15] S4END[1] S4END[2] S4END[3]
+ S4END[4] S4END[5] S4END[6] S4END[7] S4END[8] S4END[9] SS4BEG[0] SS4BEG[10] SS4BEG[11]
+ SS4BEG[12] SS4BEG[13] SS4BEG[14] SS4BEG[15] SS4BEG[1] SS4BEG[2] SS4BEG[3] SS4BEG[4]
+ SS4BEG[5] SS4BEG[6] SS4BEG[7] SS4BEG[8] SS4BEG[9] SS4END[0] SS4END[10] SS4END[11]
+ SS4END[12] SS4END[13] SS4END[14] SS4END[15] SS4END[1] SS4END[2] SS4END[3] SS4END[4]
+ SS4END[5] SS4END[6] SS4END[7] SS4END[8] SS4END[9] UserCLK UserCLKo VGND VPWR W1BEG[0]
+ W1BEG[1] W1BEG[2] W1BEG[3] W1END[0] W1END[1] W1END[2] W1END[3] W2BEG[0] W2BEG[1]
+ W2BEG[2] W2BEG[3] W2BEG[4] W2BEG[5] W2BEG[6] W2BEG[7] W2BEGb[0] W2BEGb[1] W2BEGb[2]
+ W2BEGb[3] W2BEGb[4] W2BEGb[5] W2BEGb[6] W2BEGb[7] W2END[0] W2END[1] W2END[2] W2END[3]
+ W2END[4] W2END[5] W2END[6] W2END[7] W2MID[0] W2MID[1] W2MID[2] W2MID[3] W2MID[4]
+ W2MID[5] W2MID[6] W2MID[7] W6BEG[0] W6BEG[10] W6BEG[11] W6BEG[1] W6BEG[2] W6BEG[3]
+ W6BEG[4] W6BEG[5] W6BEG[6] W6BEG[7] W6BEG[8] W6BEG[9] W6END[0] W6END[10] W6END[11]
+ W6END[1] W6END[2] W6END[3] W6END[4] W6END[5] W6END[6] W6END[7] W6END[8] W6END[9]
+ WW4BEG[0] WW4BEG[10] WW4BEG[11] WW4BEG[12] WW4BEG[13] WW4BEG[14] WW4BEG[15] WW4BEG[1]
+ WW4BEG[2] WW4BEG[3] WW4BEG[4] WW4BEG[5] WW4BEG[6] WW4BEG[7] WW4BEG[8] WW4BEG[9]
+ WW4END[0] WW4END[10] WW4END[11] WW4END[12] WW4END[13] WW4END[14] WW4END[15] WW4END[1]
+ WW4END[2] WW4END[3] WW4END[4] WW4END[5] WW4END[6] WW4END[7] WW4END[8] WW4END[9]
X_2106_ clknet_1_1__leaf_UserCLK_regs _0007_ VGND VGND VPWR VPWR Inst_LG_LUT4c_frame_config_dffesr.LUT_flop
+ sky130_fd_sc_hd__dfxtp_1
XFILLER_39_277 VGND VGND VPWR VPWR sky130_fd_sc_hd__decap_3
XFILLER_39_222 VGND VGND VPWR VPWR sky130_fd_sc_hd__fill_2
X_2037_ net766 net699 VGND VGND VPWR VPWR Inst_LUT4AB_ConfigMem.Inst_frame1_bit2.Q
+ sky130_fd_sc_hd__dlxtp_1
XFILLER_52_29 VGND VGND VPWR VPWR sky130_fd_sc_hd__decap_3
XTAP_TAPCELL_ROW_20_301 VGND VPWR sky130_fd_sc_hd__tapvpwrvgnd_1
XFILLER_45_225 VPWR VGND VPWR VGND sky130_ef_sc_hd__decap_12
XTAP_TAPCELL_ROW_43_459 VGND VPWR sky130_fd_sc_hd__tapvpwrvgnd_1
XFILLER_9_137 VGND VGND VPWR VPWR sky130_fd_sc_hd__fill_2
XFILLER_13_166 VGND VGND VPWR VPWR sky130_fd_sc_hd__fill_2
XFILLER_68_317 VGND VGND VPWR VPWR sky130_fd_sc_hd__decap_3
X_1270_ net432 _0393_ _0391_ VGND VGND VPWR VPWR _0394_ sky130_fd_sc_hd__mux2_4
XTAP_TAPCELL_ROW_59_570 VGND VPWR sky130_fd_sc_hd__tapvpwrvgnd_1
XFILLER_36_225 VGND VGND VPWR VPWR sky130_fd_sc_hd__fill_2
XFILLER_36_203 VGND VGND VPWR VPWR sky130_fd_sc_hd__fill_1
XFILLER_3_89 VPWR VGND VPWR VGND sky130_ef_sc_hd__decap_12
X_1606_ net791 net719 VGND VGND VPWR VPWR Inst_LG_LUT4c_frame_config_dffesr.inst_cus_mux161_buf.A9
+ sky130_fd_sc_hd__dlxtp_1
X_0985_ net83 net7 net90 net118 Inst_LUT4AB_ConfigMem.Inst_frame5_bit16.Q Inst_LUT4AB_ConfigMem.Inst_frame5_bit17.Q
+ VGND VGND VPWR VPWR _0130_ sky130_fd_sc_hd__mux4_2
X_1399_ net60 net815 net665 net661 Inst_LUT4AB_ConfigMem.Inst_frame13_bit5.Q Inst_LUT4AB_ConfigMem.Inst_frame13_bit6.Q
+ VGND VGND VPWR VPWR _0499_ sky130_fd_sc_hd__mux4_1
X_1468_ Inst_LUT4AB_ConfigMem.Inst_frame9_bit0.Q net621 _0535_ Inst_LD_LUT4c_frame_config_dffesr.c_reset_value
+ VGND VGND VPWR VPWR _0537_ sky130_fd_sc_hd__o2bb2a_1
X_1537_ net801 net711 VGND VGND VPWR VPWR Inst_LC_LUT4c_frame_config_dffesr.c_out_mux
+ sky130_fd_sc_hd__dlxtp_1
XFILLER_27_225 VGND VGND VPWR VPWR sky130_fd_sc_hd__fill_2
XFILLER_10_103 VGND VGND VPWR VPWR sky130_fd_sc_hd__decap_4
Xfanout661 net662 VGND VGND VPWR VPWR net661 sky130_fd_sc_hd__buf_2
Xfanout672 net673 VGND VGND VPWR VPWR net672 sky130_fd_sc_hd__buf_1
XFILLER_37_40 VPWR VGND VPWR VGND sky130_ef_sc_hd__decap_12
Xfanout683 net686 VGND VGND VPWR VPWR net683 sky130_fd_sc_hd__clkbuf_2
Xfanout650 net651 VGND VGND VPWR VPWR net650 sky130_fd_sc_hd__buf_1
XTAP_TAPCELL_ROW_5_195 VGND VPWR sky130_fd_sc_hd__tapvpwrvgnd_1
Xfanout694 FrameStrobe[3] VGND VGND VPWR VPWR net694 sky130_fd_sc_hd__clkbuf_2
XTAP_TAPCELL_ROW_56_551 VGND VPWR sky130_fd_sc_hd__tapvpwrvgnd_1
XFILLER_53_61 VGND VGND VPWR VPWR sky130_fd_sc_hd__fill_1
XFILLER_41_261 VGND VGND VPWR VPWR sky130_fd_sc_hd__fill_1
XFILLER_37_95 VGND VGND VPWR VPWR sky130_fd_sc_hd__decap_4
X_0770_ _0616_ Inst_LUT4AB_ConfigMem.Inst_frame10_bit5.Q _0618_ VGND VGND VPWR VPWR
+ _0619_ sky130_fd_sc_hd__o21a_1
XFILLER_56_309 VGND VGND VPWR VPWR sky130_fd_sc_hd__decap_8
X_1253_ _0378_ VGND VGND VPWR VPWR Inst_LUT4AB_switch_matrix.JW2BEG7 sky130_fd_sc_hd__inv_1
X_1322_ _0617_ _0053_ _0120_ net664 Inst_LUT4AB_ConfigMem.Inst_frame11_bit26.Q Inst_LUT4AB_ConfigMem.Inst_frame11_bit27.Q
+ VGND VGND VPWR VPWR _0439_ sky130_fd_sc_hd__mux4_1
X_1184_ Inst_LH_LUT4c_frame_config_dffesr.inst_cus_mux161_buf.A12 _0303_ _0307_ Inst_LH_LUT4c_frame_config_dffesr.inst_cus_mux161_buf.A14
+ VGND VGND VPWR VPWR _0316_ sky130_fd_sc_hd__o22a_1
XFILLER_49_361 VGND VGND VPWR VPWR sky130_fd_sc_hd__decap_3
XPHY_EDGE_ROW_20_Left_94 VGND VGND VPWR VPWR sky130_fd_sc_hd__decap_3
X_0968_ _0112_ _0113_ Inst_LUT4AB_ConfigMem.Inst_frame3_bit16.Q VGND VGND VPWR VPWR
+ _0114_ sky130_fd_sc_hd__mux2_4
Xoutput231 net231 VGND VGND VPWR VPWR FrameStrobe_O[1] sky130_fd_sc_hd__buf_2
Xoutput220 net220 VGND VGND VPWR VPWR FrameStrobe_O[0] sky130_fd_sc_hd__buf_2
Xoutput253 net253 VGND VGND VPWR VPWR N2BEGb[1] sky130_fd_sc_hd__buf_2
Xoutput242 net242 VGND VGND VPWR VPWR N1BEG[2] sky130_fd_sc_hd__buf_4
Xoutput286 net286 VGND VGND VPWR VPWR NN4BEG[4] sky130_fd_sc_hd__buf_2
Xoutput275 net275 VGND VGND VPWR VPWR N4BEG[9] sky130_fd_sc_hd__buf_2
Xoutput264 Inst_LUT4AB_switch_matrix.N4BEG1 VGND VGND VPWR VPWR N4BEG[13] sky130_fd_sc_hd__buf_6
XFILLER_59_103 VGND VGND VPWR VPWR sky130_fd_sc_hd__decap_8
X_0899_ net58 net66 net3 net11 Inst_LUT4AB_ConfigMem.Inst_frame3_bit10.Q Inst_LUT4AB_ConfigMem.Inst_frame3_bit11.Q
+ VGND VGND VPWR VPWR _0050_ sky130_fd_sc_hd__mux4_1
XFILLER_59_169 VGND VGND VPWR VPWR sky130_fd_sc_hd__fill_2
XFILLER_59_125 VPWR VGND VPWR VGND sky130_ef_sc_hd__decap_12
Xoutput297 net297 VGND VGND VPWR VPWR S2BEG[1] sky130_fd_sc_hd__buf_6
XTAP_TAPCELL_ROW_53_532 VGND VPWR sky130_fd_sc_hd__tapvpwrvgnd_1
XFILLER_38_309 VGND VGND VPWR VPWR sky130_fd_sc_hd__decap_8
XFILLER_65_139 VGND VGND VPWR VPWR sky130_fd_sc_hd__fill_1
XFILLER_0_57 VGND VGND VPWR VPWR sky130_fd_sc_hd__fill_1
X_1871_ net770 net675 VGND VGND VPWR VPWR Inst_LUT4AB_ConfigMem.Inst_frame7_bit28.Q
+ sky130_fd_sc_hd__dlxtp_1
X_1940_ net790 net687 VGND VGND VPWR VPWR Inst_LUT4AB_ConfigMem.Inst_frame4_bit1.Q
+ sky130_fd_sc_hd__dlxtp_1
X_0822_ net639 net629 net624 net623 Inst_LUT4AB_ConfigMem.Inst_frame1_bit6.Q Inst_LUT4AB_ConfigMem.Inst_frame1_bit7.Q
+ VGND VGND VPWR VPWR _0667_ sky130_fd_sc_hd__mux4_1
XTAP_TAPCELL_ROW_16_267 VGND VPWR sky130_fd_sc_hd__tapvpwrvgnd_1
XFILLER_50_3 VGND VGND VPWR VPWR sky130_fd_sc_hd__decap_4
X_0753_ _0602_ _0603_ Inst_LUT4AB_ConfigMem.Inst_frame3_bit0.Q VGND VGND VPWR VPWR
+ _0604_ sky130_fd_sc_hd__mux2_1
X_2285_ S4END[10] VGND VGND VPWR VPWR net324 sky130_fd_sc_hd__clkbuf_2
XTAP_TAPCELL_ROW_67_624 VGND VPWR sky130_fd_sc_hd__tapvpwrvgnd_1
X_1236_ _0363_ VGND VGND VPWR VPWR Inst_LUT4AB_switch_matrix.E2BEG7 sky130_fd_sc_hd__inv_6
XFILLER_56_139 VGND VGND VPWR VPWR sky130_fd_sc_hd__fill_1
X_1305_ _0422_ _0423_ _0593_ VGND VGND VPWR VPWR _0424_ sky130_fd_sc_hd__mux2_1
X_2354_ WW4END[14] VGND VGND VPWR VPWR net378 sky130_fd_sc_hd__clkbuf_2
X_1098_ Inst_LUT4AB_ConfigMem.Inst_frame4_bit20.Q _0234_ VGND VGND VPWR VPWR _0235_
+ sky130_fd_sc_hd__and2b_1
X_1167_ Inst_LUT4AB_ConfigMem.Inst_frame8_bit10.Q _0297_ _0298_ Inst_LH_LUT4c_frame_config_dffesr.c_I0mux
+ _0296_ VGND VGND VPWR VPWR _0299_ sky130_fd_sc_hd__a311oi_1
XFILLER_20_253 VGND VGND VPWR VPWR sky130_fd_sc_hd__fill_1
XFILLER_47_139 VGND VGND VPWR VPWR sky130_fd_sc_hd__fill_1
XFILLER_18_53 VPWR VGND VPWR VGND sky130_ef_sc_hd__decap_12
XFILLER_34_85 VGND VGND VPWR VPWR sky130_fd_sc_hd__fill_1
XTAP_TAPCELL_ROW_13_248 VGND VPWR sky130_fd_sc_hd__tapvpwrvgnd_1
X_2070_ net759 net745 VGND VGND VPWR VPWR Inst_LUT4AB_ConfigMem.Inst_frame0_bit3.Q
+ sky130_fd_sc_hd__dlxtp_1
XTAP_TAPCELL_ROW_72_660 VGND VPWR sky130_fd_sc_hd__tapvpwrvgnd_1
XTAP_TAPCELL_ROW_64_605 VGND VPWR sky130_fd_sc_hd__tapvpwrvgnd_1
X_1021_ Inst_LUT4AB_ConfigMem.Inst_frame4_bit12.Q _0162_ Inst_LUT4AB_ConfigMem.Inst_frame4_bit13.Q
+ VGND VGND VPWR VPWR _0163_ sky130_fd_sc_hd__a21bo_1
XFILLER_34_345 VPWR VGND VPWR VGND sky130_ef_sc_hd__decap_12
X_1854_ net808 net677 VGND VGND VPWR VPWR Inst_LUT4AB_ConfigMem.Inst_frame7_bit11.Q
+ sky130_fd_sc_hd__dlxtp_1
X_1785_ net753 net670 VGND VGND VPWR VPWR Inst_LUT4AB_ConfigMem.Inst_frame9_bit6.Q
+ sky130_fd_sc_hd__dlxtp_1
X_1923_ net797 net683 VGND VGND VPWR VPWR Inst_LUT4AB_ConfigMem.Inst_frame5_bit16.Q
+ sky130_fd_sc_hd__dlxtp_1
X_0805_ _0648_ _0646_ _0651_ _0558_ VGND VGND VPWR VPWR Inst_LUT4AB_switch_matrix.JS2BEG3
+ sky130_fd_sc_hd__a22o_1
X_0736_ Inst_LUT4AB_ConfigMem.Inst_frame2_bit28.Q VGND VGND VPWR VPWR _0587_ sky130_fd_sc_hd__inv_1
X_2337_ W6END[7] VGND VGND VPWR VPWR net372 sky130_fd_sc_hd__clkbuf_2
X_2268_ net408 VGND VGND VPWR VPWR net301 sky130_fd_sc_hd__buf_2
X_2199_ net733 VGND VGND VPWR VPWR net223 sky130_fd_sc_hd__buf_1
X_1219_ _0341_ _0338_ _0347_ _0348_ VGND VGND VPWR VPWR _0349_ sky130_fd_sc_hd__a22o_1
XFILLER_25_301 VPWR VGND VPWR VGND sky130_ef_sc_hd__decap_12
XFILLER_52_197 VPWR VGND VPWR VGND sky130_ef_sc_hd__decap_12
XFILLER_52_175 VPWR VGND VPWR VGND sky130_ef_sc_hd__decap_12
XPHY_EDGE_ROW_33_Left_107 VGND VGND VPWR VPWR sky130_fd_sc_hd__decap_3
XFILLER_25_356 VGND VGND VPWR VPWR sky130_fd_sc_hd__fill_2
XTAP_TAPCELL_ROW_10_229 VGND VPWR sky130_fd_sc_hd__tapvpwrvgnd_1
XPHY_EDGE_ROW_42_Left_116 VGND VGND VPWR VPWR sky130_fd_sc_hd__decap_3
XPHY_EDGE_ROW_51_Left_125 VGND VGND VPWR VPWR sky130_fd_sc_hd__decap_3
XTAP_TAPCELL_ROW_26_340 VGND VPWR sky130_fd_sc_hd__tapvpwrvgnd_1
XFILLER_16_345 VGND VGND VPWR VPWR sky130_fd_sc_hd__decap_4
XFILLER_61_50 VGND VGND VPWR VPWR sky130_fd_sc_hd__decap_6
XFILLER_31_337 VPWR VGND VPWR VGND sky130_ef_sc_hd__decap_12
XANTENNA_5 net171 VGND VGND VPWR VPWR sky130_fd_sc_hd__diode_2
XPHY_EDGE_ROW_60_Left_134 VGND VGND VPWR VPWR sky130_fd_sc_hd__decap_3
X_1570_ net799 net712 VGND VGND VPWR VPWR Inst_LE_LUT4c_frame_config_dffesr.inst_cus_mux161_buf.A11
+ sky130_fd_sc_hd__dlxtp_1
X_2053_ net794 net701 VGND VGND VPWR VPWR Inst_LUT4AB_ConfigMem.Inst_frame1_bit18.Q
+ sky130_fd_sc_hd__dlxtp_1
XFILLER_66_234 VGND VGND VPWR VPWR sky130_fd_sc_hd__decap_6
Xrebuffer17 _0354_ VGND VGND VPWR VPWR net409 sky130_fd_sc_hd__dlygate4sd1_1
XTAP_TAPCELL_ROW_49_498 VGND VPWR sky130_fd_sc_hd__tapvpwrvgnd_1
Xrebuffer39 _0107_ VGND VGND VPWR VPWR net431 sky130_fd_sc_hd__buf_6
X_2122_ net17 VGND VGND VPWR VPWR net155 sky130_fd_sc_hd__clkbuf_2
X_1004_ Inst_LE_LUT4c_frame_config_dffesr.inst_cus_mux161_buf.A7 _0124_ _0126_ Inst_LE_LUT4c_frame_config_dffesr.inst_cus_mux161_buf.A1
+ _0147_ VGND VGND VPWR VPWR _0148_ sky130_fd_sc_hd__o221a_1
X_1837_ net774 net674 VGND VGND VPWR VPWR Inst_LUT4AB_ConfigMem.Inst_frame8_bit26.Q
+ sky130_fd_sc_hd__dlxtp_1
X_1906_ net761 net682 VGND VGND VPWR VPWR Inst_LUT4AB_ConfigMem.Inst_frame6_bit31.Q
+ sky130_fd_sc_hd__dlxtp_1
X_1768_ net785 net739 VGND VGND VPWR VPWR Inst_LUT4AB_ConfigMem.Inst_frame10_bit21.Q
+ sky130_fd_sc_hd__dlxtp_1
X_0719_ Inst_LUT4AB_ConfigMem.Inst_frame2_bit17.Q VGND VGND VPWR VPWR _0570_ sky130_fd_sc_hd__inv_1
X_1699_ net797 net730 VGND VGND VPWR VPWR Inst_LUT4AB_ConfigMem.Inst_frame12_bit16.Q
+ sky130_fd_sc_hd__dlxtp_1
XFILLER_25_186 VGND VGND VPWR VPWR sky130_fd_sc_hd__decap_4
XTAP_TAPCELL_ROW_23_321 VGND VPWR sky130_fd_sc_hd__tapvpwrvgnd_1
XFILLER_15_54 VGND VGND VPWR VPWR sky130_fd_sc_hd__fill_2
XFILLER_63_204 VGND VGND VPWR VPWR sky130_fd_sc_hd__fill_1
XFILLER_56_50 VPWR VGND VPWR VGND sky130_ef_sc_hd__decap_12
Xinput131 W2MID[6] VGND VGND VPWR VPWR net131 sky130_fd_sc_hd__clkbuf_2
Xinput120 W2END[3] VGND VGND VPWR VPWR net120 sky130_fd_sc_hd__buf_2
XFILLER_71_281 VGND VGND VPWR VPWR sky130_fd_sc_hd__fill_1
XFILLER_71_270 VGND VGND VPWR VPWR sky130_fd_sc_hd__fill_1
XTAP_TAPCELL_ROW_46_479 VGND VPWR sky130_fd_sc_hd__tapvpwrvgnd_1
XFILLER_31_145 VGND VGND VPWR VPWR sky130_fd_sc_hd__decap_3
X_1622_ net760 net723 VGND VGND VPWR VPWR Inst_LH_LUT4c_frame_config_dffesr.inst_cus_mux161_buf.A6
+ sky130_fd_sc_hd__dlxtp_1
X_1553_ net46 net710 VGND VGND VPWR VPWR Inst_LD_LUT4c_frame_config_dffesr.inst_cus_mux161_buf.A13
+ sky130_fd_sc_hd__dlxtp_1
X_1484_ net777 net55 VGND VGND VPWR VPWR Inst_LA_LUT4c_frame_config_dffesr.inst_cus_mux161_buf.A1
+ sky130_fd_sc_hd__dlxtp_1
X_2105_ clknet_1_1__leaf_UserCLK_regs _0006_ VGND VGND VPWR VPWR Inst_LF_LUT4c_frame_config_dffesr.LUT_flop
+ sky130_fd_sc_hd__dfxtp_1
X_2036_ net790 net699 VGND VGND VPWR VPWR Inst_LUT4AB_ConfigMem.Inst_frame1_bit1.Q
+ sky130_fd_sc_hd__dlxtp_1
XFILLER_10_307 VGND VGND VPWR VPWR sky130_fd_sc_hd__fill_1
XFILLER_10_329 VGND VGND VPWR VPWR sky130_fd_sc_hd__fill_1
XFILLER_22_134 VGND VGND VPWR VPWR sky130_fd_sc_hd__decap_6
Xfanout810 net29 VGND VGND VPWR VPWR net810 sky130_fd_sc_hd__clkbuf_4
XFILLER_45_237 VGND VGND VPWR VPWR sky130_fd_sc_hd__fill_1
XFILLER_26_97 VGND VGND VPWR VPWR sky130_fd_sc_hd__fill_1
XFILLER_9_105 VGND VGND VPWR VPWR sky130_fd_sc_hd__decap_6
XFILLER_13_101 VGND VGND VPWR VPWR sky130_fd_sc_hd__decap_8
XFILLER_13_134 VPWR VGND VPWR VGND sky130_ef_sc_hd__decap_12
Xrebuffer8 Inst_LUT4AB_switch_matrix.JS2BEG7 VGND VGND VPWR VPWR net400 sky130_fd_sc_hd__clkbuf_2
XFILLER_42_85 VGND VGND VPWR VPWR sky130_fd_sc_hd__decap_6
XFILLER_42_41 VPWR VGND VPWR VGND sky130_ef_sc_hd__decap_12
XTAP_TAPCELL_ROW_59_571 VGND VPWR sky130_fd_sc_hd__tapvpwrvgnd_1
XFILLER_51_218 VGND VGND VPWR VPWR sky130_fd_sc_hd__decap_6
XFILLER_36_248 VGND VGND VPWR VPWR sky130_fd_sc_hd__fill_1
X_0984_ net27 net136 net105 Inst_LUT4AB_switch_matrix.JW2BEG3 Inst_LUT4AB_ConfigMem.Inst_frame0_bit17.Q
+ Inst_LUT4AB_ConfigMem.Inst_frame0_bit16.Q VGND VGND VPWR VPWR _0129_ sky130_fd_sc_hd__mux4_2
X_1605_ net793 net718 VGND VGND VPWR VPWR Inst_LG_LUT4c_frame_config_dffesr.inst_cus_mux161_buf.A8
+ sky130_fd_sc_hd__dlxtp_1
X_1536_ net804 net707 VGND VGND VPWR VPWR Inst_LC_LUT4c_frame_config_dffesr.inst_cus_mux161_buf.A15
+ sky130_fd_sc_hd__dlxtp_1
XFILLER_8_171 VPWR VGND VPWR VGND sky130_ef_sc_hd__decap_12
X_1398_ _0498_ _0497_ Inst_LUT4AB_ConfigMem.Inst_frame13_bit10.Q VGND VGND VPWR VPWR
+ Inst_LUT4AB_switch_matrix.NN4BEG2 sky130_fd_sc_hd__mux2_1
X_1467_ _0349_ _0535_ VGND VGND VPWR VPWR _0536_ sky130_fd_sc_hd__nand2b_1
X_2019_ net797 net697 VGND VGND VPWR VPWR Inst_LUT4AB_ConfigMem.Inst_frame2_bit16.Q
+ sky130_fd_sc_hd__dlxtp_1
XFILLER_35_281 VGND VGND VPWR VPWR sky130_fd_sc_hd__decap_3
XFILLER_10_137 VGND VGND VPWR VPWR sky130_fd_sc_hd__decap_3
XFILLER_12_66 VPWR VGND VPWR VGND sky130_ef_sc_hd__decap_12
Xfanout640 net643 VGND VGND VPWR VPWR net640 sky130_fd_sc_hd__buf_8
Xfanout651 C VGND VGND VPWR VPWR net651 sky130_fd_sc_hd__clkbuf_2
XFILLER_2_347 VGND VGND VPWR VPWR sky130_fd_sc_hd__fill_2
XTAP_TAPCELL_ROW_56_552 VGND VPWR sky130_fd_sc_hd__tapvpwrvgnd_1
Xfanout662 net663 VGND VGND VPWR VPWR net662 sky130_fd_sc_hd__clkbuf_2
Xfanout673 FrameStrobe[8] VGND VGND VPWR VPWR net673 sky130_fd_sc_hd__clkbuf_4
XFILLER_37_63 VGND VGND VPWR VPWR sky130_fd_sc_hd__fill_1
XFILLER_37_52 VGND VGND VPWR VPWR sky130_fd_sc_hd__decap_4
XFILLER_33_207 VPWR VGND VPWR VGND sky130_ef_sc_hd__decap_12