*SPEF "ieee 1481-1999"
*DESIGN "W_IO"
*DATE "17:18:10 Thursday April 03, 2025"
*VENDOR "The OpenROAD Project"
*PROGRAM "OpenROAD"
*VERSION "87af90f72f3f9be1fdfa1d886f0dd8d8b8f34694"
*DESIGN_FLOW "NAME_SCOPE LOCAL" "PIN_CAP NONE"
*DIVIDER /
*DELIMITER :
*BUS_DELIMITER []
*T_UNIT 1 NS
*C_UNIT 1 PF
*R_UNIT 1 OHM
*L_UNIT 1 HENRY

*NAME_MAP
*1 A_I_top
*2 A_O_top
*3 A_T_top
*4 A_config_C_bit0
*5 A_config_C_bit1
*6 A_config_C_bit2
*7 A_config_C_bit3
*8 B_I_top
*9 B_O_top
*10 B_T_top
*11 B_config_C_bit0
*12 B_config_C_bit1
*13 B_config_C_bit2
*14 B_config_C_bit3
*15 E1BEG[0]
*16 E1BEG[1]
*17 E1BEG[2]
*18 E1BEG[3]
*19 E2BEG[0]
*20 E2BEG[1]
*21 E2BEG[2]
*22 E2BEG[3]
*23 E2BEG[4]
*24 E2BEG[5]
*25 E2BEG[6]
*26 E2BEG[7]
*27 E2BEGb[0]
*28 E2BEGb[1]
*29 E2BEGb[2]
*30 E2BEGb[3]
*31 E2BEGb[4]
*32 E2BEGb[5]
*33 E2BEGb[6]
*34 E2BEGb[7]
*35 E6BEG[0]
*36 E6BEG[10]
*37 E6BEG[11]
*38 E6BEG[1]
*39 E6BEG[2]
*40 E6BEG[3]
*41 E6BEG[4]
*42 E6BEG[5]
*43 E6BEG[6]
*44 E6BEG[7]
*45 E6BEG[8]
*46 E6BEG[9]
*47 EE4BEG[0]
*48 EE4BEG[10]
*49 EE4BEG[11]
*50 EE4BEG[12]
*51 EE4BEG[13]
*52 EE4BEG[14]
*53 EE4BEG[15]
*54 EE4BEG[1]
*55 EE4BEG[2]
*56 EE4BEG[3]
*57 EE4BEG[4]
*58 EE4BEG[5]
*59 EE4BEG[6]
*60 EE4BEG[7]
*61 EE4BEG[8]
*62 EE4BEG[9]
*63 FrameData[0]
*64 FrameData[10]
*65 FrameData[11]
*66 FrameData[12]
*67 FrameData[13]
*68 FrameData[14]
*69 FrameData[15]
*70 FrameData[16]
*71 FrameData[17]
*72 FrameData[18]
*73 FrameData[19]
*74 FrameData[1]
*75 FrameData[20]
*76 FrameData[21]
*77 FrameData[22]
*78 FrameData[23]
*79 FrameData[24]
*80 FrameData[25]
*81 FrameData[26]
*82 FrameData[27]
*83 FrameData[28]
*84 FrameData[29]
*85 FrameData[2]
*86 FrameData[30]
*87 FrameData[31]
*88 FrameData[3]
*89 FrameData[4]
*90 FrameData[5]
*91 FrameData[6]
*92 FrameData[7]
*93 FrameData[8]
*94 FrameData[9]
*95 FrameData_O[0]
*96 FrameData_O[10]
*97 FrameData_O[11]
*98 FrameData_O[12]
*99 FrameData_O[13]
*100 FrameData_O[14]
*101 FrameData_O[15]
*102 FrameData_O[16]
*103 FrameData_O[17]
*104 FrameData_O[18]
*105 FrameData_O[19]
*106 FrameData_O[1]
*107 FrameData_O[20]
*108 FrameData_O[21]
*109 FrameData_O[22]
*110 FrameData_O[23]
*111 FrameData_O[24]
*112 FrameData_O[25]
*113 FrameData_O[26]
*114 FrameData_O[27]
*115 FrameData_O[28]
*116 FrameData_O[29]
*117 FrameData_O[2]
*118 FrameData_O[30]
*119 FrameData_O[31]
*120 FrameData_O[3]
*121 FrameData_O[4]
*122 FrameData_O[5]
*123 FrameData_O[6]
*124 FrameData_O[7]
*125 FrameData_O[8]
*126 FrameData_O[9]
*127 FrameStrobe[0]
*128 FrameStrobe[10]
*129 FrameStrobe[11]
*130 FrameStrobe[12]
*131 FrameStrobe[13]
*132 FrameStrobe[14]
*133 FrameStrobe[15]
*134 FrameStrobe[16]
*135 FrameStrobe[17]
*136 FrameStrobe[18]
*137 FrameStrobe[19]
*138 FrameStrobe[1]
*139 FrameStrobe[2]
*140 FrameStrobe[3]
*141 FrameStrobe[4]
*142 FrameStrobe[5]
*143 FrameStrobe[6]
*144 FrameStrobe[7]
*145 FrameStrobe[8]
*146 FrameStrobe[9]
*147 FrameStrobe_O[0]
*148 FrameStrobe_O[10]
*149 FrameStrobe_O[11]
*150 FrameStrobe_O[12]
*151 FrameStrobe_O[13]
*152 FrameStrobe_O[14]
*153 FrameStrobe_O[15]
*154 FrameStrobe_O[16]
*155 FrameStrobe_O[17]
*156 FrameStrobe_O[18]
*157 FrameStrobe_O[19]
*158 FrameStrobe_O[1]
*159 FrameStrobe_O[2]
*160 FrameStrobe_O[3]
*161 FrameStrobe_O[4]
*162 FrameStrobe_O[5]
*163 FrameStrobe_O[6]
*164 FrameStrobe_O[7]
*165 FrameStrobe_O[8]
*166 FrameStrobe_O[9]
*167 UserCLK
*168 UserCLKo
*171 W1END[0]
*172 W1END[1]
*173 W1END[2]
*174 W1END[3]
*175 W2END[0]
*176 W2END[1]
*177 W2END[2]
*178 W2END[3]
*179 W2END[4]
*180 W2END[5]
*181 W2END[6]
*182 W2END[7]
*183 W2MID[0]
*184 W2MID[1]
*185 W2MID[2]
*186 W2MID[3]
*187 W2MID[4]
*188 W2MID[5]
*189 W2MID[6]
*190 W2MID[7]
*191 W6END[0]
*192 W6END[10]
*193 W6END[11]
*194 W6END[1]
*195 W6END[2]
*196 W6END[3]
*197 W6END[4]
*198 W6END[5]
*199 W6END[6]
*200 W6END[7]
*201 W6END[8]
*202 W6END[9]
*203 WW4END[0]
*204 WW4END[10]
*205 WW4END[11]
*206 WW4END[12]
*207 WW4END[13]
*208 WW4END[14]
*209 WW4END[15]
*210 WW4END[1]
*211 WW4END[2]
*212 WW4END[3]
*213 WW4END[4]
*214 WW4END[5]
*215 WW4END[6]
*216 WW4END[7]
*217 WW4END[8]
*218 WW4END[9]
*219 Inst_A_IO_1_bidirectional_frame_config_pass\.Q
*220 Inst_B_IO_1_bidirectional_frame_config_pass\.Q
*221 Inst_W_IO_ConfigMem\.Inst_frame0_bit0\.Q
*222 Inst_W_IO_ConfigMem\.Inst_frame0_bit1\.Q
*223 Inst_W_IO_ConfigMem\.Inst_frame0_bit10\.Q
*224 Inst_W_IO_ConfigMem\.Inst_frame0_bit11\.Q
*225 Inst_W_IO_ConfigMem\.Inst_frame0_bit12\.Q
*226 Inst_W_IO_ConfigMem\.Inst_frame0_bit13\.Q
*227 Inst_W_IO_ConfigMem\.Inst_frame0_bit14\.Q
*228 Inst_W_IO_ConfigMem\.Inst_frame0_bit15\.Q
*229 Inst_W_IO_ConfigMem\.Inst_frame0_bit16\.Q
*230 Inst_W_IO_ConfigMem\.Inst_frame0_bit17\.Q
*231 Inst_W_IO_ConfigMem\.Inst_frame0_bit18\.Q
*232 Inst_W_IO_ConfigMem\.Inst_frame0_bit19\.Q
*233 Inst_W_IO_ConfigMem\.Inst_frame0_bit2\.Q
*234 Inst_W_IO_ConfigMem\.Inst_frame0_bit20\.Q
*235 Inst_W_IO_ConfigMem\.Inst_frame0_bit21\.Q
*236 Inst_W_IO_ConfigMem\.Inst_frame0_bit22\.Q
*237 Inst_W_IO_ConfigMem\.Inst_frame0_bit23\.Q
*238 Inst_W_IO_ConfigMem\.Inst_frame0_bit24\.Q
*239 Inst_W_IO_ConfigMem\.Inst_frame0_bit25\.Q
*240 Inst_W_IO_ConfigMem\.Inst_frame0_bit26\.Q
*241 Inst_W_IO_ConfigMem\.Inst_frame0_bit27\.Q
*242 Inst_W_IO_ConfigMem\.Inst_frame0_bit28\.Q
*243 Inst_W_IO_ConfigMem\.Inst_frame0_bit29\.Q
*244 Inst_W_IO_ConfigMem\.Inst_frame0_bit3\.Q
*245 Inst_W_IO_ConfigMem\.Inst_frame0_bit30\.Q
*246 Inst_W_IO_ConfigMem\.Inst_frame0_bit31\.Q
*247 Inst_W_IO_ConfigMem\.Inst_frame0_bit4\.Q
*248 Inst_W_IO_ConfigMem\.Inst_frame0_bit5\.Q
*249 Inst_W_IO_ConfigMem\.Inst_frame0_bit6\.Q
*250 Inst_W_IO_ConfigMem\.Inst_frame0_bit7\.Q
*251 Inst_W_IO_ConfigMem\.Inst_frame0_bit8\.Q
*252 Inst_W_IO_ConfigMem\.Inst_frame0_bit9\.Q
*253 Inst_W_IO_ConfigMem\.Inst_frame1_bit0\.Q
*254 Inst_W_IO_ConfigMem\.Inst_frame1_bit1\.Q
*255 Inst_W_IO_ConfigMem\.Inst_frame1_bit10\.Q
*256 Inst_W_IO_ConfigMem\.Inst_frame1_bit11\.Q
*257 Inst_W_IO_ConfigMem\.Inst_frame1_bit12\.Q
*258 Inst_W_IO_ConfigMem\.Inst_frame1_bit13\.Q
*259 Inst_W_IO_ConfigMem\.Inst_frame1_bit14\.Q
*260 Inst_W_IO_ConfigMem\.Inst_frame1_bit15\.Q
*261 Inst_W_IO_ConfigMem\.Inst_frame1_bit16\.Q
*262 Inst_W_IO_ConfigMem\.Inst_frame1_bit17\.Q
*263 Inst_W_IO_ConfigMem\.Inst_frame1_bit18\.Q
*264 Inst_W_IO_ConfigMem\.Inst_frame1_bit19\.Q
*265 Inst_W_IO_ConfigMem\.Inst_frame1_bit2\.Q
*266 Inst_W_IO_ConfigMem\.Inst_frame1_bit20\.Q
*267 Inst_W_IO_ConfigMem\.Inst_frame1_bit21\.Q
*268 Inst_W_IO_ConfigMem\.Inst_frame1_bit22\.Q
*269 Inst_W_IO_ConfigMem\.Inst_frame1_bit23\.Q
*270 Inst_W_IO_ConfigMem\.Inst_frame1_bit24\.Q
*271 Inst_W_IO_ConfigMem\.Inst_frame1_bit25\.Q
*272 Inst_W_IO_ConfigMem\.Inst_frame1_bit26\.Q
*273 Inst_W_IO_ConfigMem\.Inst_frame1_bit27\.Q
*274 Inst_W_IO_ConfigMem\.Inst_frame1_bit28\.Q
*275 Inst_W_IO_ConfigMem\.Inst_frame1_bit29\.Q
*276 Inst_W_IO_ConfigMem\.Inst_frame1_bit3\.Q
*277 Inst_W_IO_ConfigMem\.Inst_frame1_bit30\.Q
*278 Inst_W_IO_ConfigMem\.Inst_frame1_bit31\.Q
*279 Inst_W_IO_ConfigMem\.Inst_frame1_bit4\.Q
*280 Inst_W_IO_ConfigMem\.Inst_frame1_bit5\.Q
*281 Inst_W_IO_ConfigMem\.Inst_frame1_bit6\.Q
*282 Inst_W_IO_ConfigMem\.Inst_frame1_bit7\.Q
*283 Inst_W_IO_ConfigMem\.Inst_frame1_bit8\.Q
*284 Inst_W_IO_ConfigMem\.Inst_frame1_bit9\.Q
*285 Inst_W_IO_ConfigMem\.Inst_frame2_bit0\.Q
*286 Inst_W_IO_ConfigMem\.Inst_frame2_bit1\.Q
*287 Inst_W_IO_ConfigMem\.Inst_frame2_bit10\.Q
*288 Inst_W_IO_ConfigMem\.Inst_frame2_bit11\.Q
*289 Inst_W_IO_ConfigMem\.Inst_frame2_bit12\.Q
*290 Inst_W_IO_ConfigMem\.Inst_frame2_bit13\.Q
*291 Inst_W_IO_ConfigMem\.Inst_frame2_bit14\.Q
*292 Inst_W_IO_ConfigMem\.Inst_frame2_bit15\.Q
*293 Inst_W_IO_ConfigMem\.Inst_frame2_bit16\.Q
*294 Inst_W_IO_ConfigMem\.Inst_frame2_bit17\.Q
*295 Inst_W_IO_ConfigMem\.Inst_frame2_bit18\.Q
*296 Inst_W_IO_ConfigMem\.Inst_frame2_bit19\.Q
*297 Inst_W_IO_ConfigMem\.Inst_frame2_bit2\.Q
*298 Inst_W_IO_ConfigMem\.Inst_frame2_bit20\.Q
*299 Inst_W_IO_ConfigMem\.Inst_frame2_bit21\.Q
*300 Inst_W_IO_ConfigMem\.Inst_frame2_bit22\.Q
*301 Inst_W_IO_ConfigMem\.Inst_frame2_bit23\.Q
*302 Inst_W_IO_ConfigMem\.Inst_frame2_bit24\.Q
*303 Inst_W_IO_ConfigMem\.Inst_frame2_bit25\.Q
*304 Inst_W_IO_ConfigMem\.Inst_frame2_bit26\.Q
*305 Inst_W_IO_ConfigMem\.Inst_frame2_bit27\.Q
*306 Inst_W_IO_ConfigMem\.Inst_frame2_bit28\.Q
*307 Inst_W_IO_ConfigMem\.Inst_frame2_bit29\.Q
*308 Inst_W_IO_ConfigMem\.Inst_frame2_bit3\.Q
*309 Inst_W_IO_ConfigMem\.Inst_frame2_bit30\.Q
*310 Inst_W_IO_ConfigMem\.Inst_frame2_bit31\.Q
*311 Inst_W_IO_ConfigMem\.Inst_frame2_bit4\.Q
*312 Inst_W_IO_ConfigMem\.Inst_frame2_bit5\.Q
*313 Inst_W_IO_ConfigMem\.Inst_frame2_bit6\.Q
*314 Inst_W_IO_ConfigMem\.Inst_frame2_bit7\.Q
*315 Inst_W_IO_ConfigMem\.Inst_frame2_bit8\.Q
*316 Inst_W_IO_ConfigMem\.Inst_frame2_bit9\.Q
*317 Inst_W_IO_ConfigMem\.Inst_frame3_bit22\.Q
*318 Inst_W_IO_ConfigMem\.Inst_frame3_bit23\.Q
*319 Inst_W_IO_ConfigMem\.Inst_frame3_bit24\.Q
*320 Inst_W_IO_ConfigMem\.Inst_frame3_bit25\.Q
*321 Inst_W_IO_ConfigMem\.Inst_frame3_bit26\.Q
*322 Inst_W_IO_ConfigMem\.Inst_frame3_bit27\.Q
*323 Inst_W_IO_ConfigMem\.Inst_frame3_bit28\.Q
*324 Inst_W_IO_ConfigMem\.Inst_frame3_bit29\.Q
*325 Inst_W_IO_ConfigMem\.Inst_frame3_bit30\.Q
*326 Inst_W_IO_ConfigMem\.Inst_frame3_bit31\.Q
*327 Inst_W_IO_switch_matrix\.E1BEG0
*328 Inst_W_IO_switch_matrix\.E1BEG1
*329 Inst_W_IO_switch_matrix\.E1BEG2
*330 Inst_W_IO_switch_matrix\.E1BEG3
*331 Inst_W_IO_switch_matrix\.E2BEG0
*332 Inst_W_IO_switch_matrix\.E2BEG1
*333 Inst_W_IO_switch_matrix\.E2BEG2
*334 Inst_W_IO_switch_matrix\.E2BEG3
*335 Inst_W_IO_switch_matrix\.E2BEG4
*336 Inst_W_IO_switch_matrix\.E2BEG5
*337 Inst_W_IO_switch_matrix\.E2BEG6
*338 Inst_W_IO_switch_matrix\.E2BEG7
*339 Inst_W_IO_switch_matrix\.E2BEGb0
*340 Inst_W_IO_switch_matrix\.E2BEGb1
*341 Inst_W_IO_switch_matrix\.E2BEGb2
*342 Inst_W_IO_switch_matrix\.E2BEGb3
*343 Inst_W_IO_switch_matrix\.E2BEGb4
*344 Inst_W_IO_switch_matrix\.E2BEGb5
*345 Inst_W_IO_switch_matrix\.E2BEGb6
*346 Inst_W_IO_switch_matrix\.E2BEGb7
*347 Inst_W_IO_switch_matrix\.E6BEG0
*348 Inst_W_IO_switch_matrix\.E6BEG1
*349 Inst_W_IO_switch_matrix\.E6BEG10
*350 Inst_W_IO_switch_matrix\.E6BEG11
*351 Inst_W_IO_switch_matrix\.E6BEG2
*352 Inst_W_IO_switch_matrix\.E6BEG3
*353 Inst_W_IO_switch_matrix\.E6BEG4
*354 Inst_W_IO_switch_matrix\.E6BEG5
*355 Inst_W_IO_switch_matrix\.E6BEG6
*356 Inst_W_IO_switch_matrix\.E6BEG7
*357 Inst_W_IO_switch_matrix\.E6BEG8
*358 Inst_W_IO_switch_matrix\.E6BEG9
*359 Inst_W_IO_switch_matrix\.EE4BEG0
*360 Inst_W_IO_switch_matrix\.EE4BEG1
*361 Inst_W_IO_switch_matrix\.EE4BEG10
*362 Inst_W_IO_switch_matrix\.EE4BEG11
*363 Inst_W_IO_switch_matrix\.EE4BEG12
*364 Inst_W_IO_switch_matrix\.EE4BEG13
*365 Inst_W_IO_switch_matrix\.EE4BEG14
*366 Inst_W_IO_switch_matrix\.EE4BEG15
*367 Inst_W_IO_switch_matrix\.EE4BEG2
*368 Inst_W_IO_switch_matrix\.EE4BEG3
*369 Inst_W_IO_switch_matrix\.EE4BEG4
*370 Inst_W_IO_switch_matrix\.EE4BEG5
*371 Inst_W_IO_switch_matrix\.EE4BEG6
*372 Inst_W_IO_switch_matrix\.EE4BEG7
*373 Inst_W_IO_switch_matrix\.EE4BEG8
*374 Inst_W_IO_switch_matrix\.EE4BEG9
*375 _000_
*376 _001_
*377 _002_
*378 _003_
*379 _004_
*380 _005_
*381 _006_
*382 _007_
*383 _008_
*384 _009_
*385 _010_
*386 _011_
*387 _012_
*388 _013_
*389 _014_
*390 _015_
*391 _016_
*392 _017_
*393 _018_
*394 _019_
*395 _020_
*396 _021_
*397 _022_
*398 _023_
*399 _024_
*400 _025_
*401 _026_
*402 _027_
*403 _028_
*404 _029_
*405 _030_
*406 _031_
*407 _032_
*408 _033_
*409 _034_
*410 _035_
*411 _036_
*412 _037_
*413 _038_
*414 _039_
*415 _040_
*416 _041_
*417 _042_
*418 _043_
*419 _044_
*420 _045_
*421 _046_
*422 net1
*423 net10
*424 net100
*425 net101
*426 net102
*427 net103
*428 net104
*429 net105
*430 net106
*431 net107
*432 net108
*433 net109
*434 net11
*435 net110
*436 net111
*437 net112
*438 net113
*439 net114
*440 net115
*441 net116
*442 net117
*443 net118
*444 net119
*445 net12
*446 net120
*447 net121
*448 net122
*449 net123
*450 net124
*451 net125
*452 net126
*453 net127
*454 net128
*455 net129
*456 net13
*457 net130
*458 net131
*459 net132
*460 net133
*461 net134
*462 net135
*463 net136
*464 net137
*465 net138
*466 net139
*467 net14
*468 net140
*469 net141
*470 net142
*471 net143
*472 net144
*473 net145
*474 net146
*475 net147
*476 net148
*477 net149
*478 net15
*479 net150
*480 net151
*481 net152
*482 net153
*483 net154
*484 net155
*485 net156
*486 net157
*487 net158
*488 net159
*489 net16
*490 net160
*491 net161
*492 net162
*493 net163
*494 net164
*495 net165
*496 net166
*497 net167
*498 net168
*499 net169
*500 net17
*501 net170
*502 net171
*503 net172
*504 net173
*505 net174
*506 net175
*507 net176
*508 net177
*509 net178
*510 net179
*511 net18
*512 net180
*513 net181
*514 net182
*515 net183
*516 net184
*517 net185
*518 net186
*519 net187
*520 net188
*521 net189
*522 net19
*523 net190
*524 net191
*525 net192
*526 net193
*527 net194
*528 net195
*529 net196
*530 net197
*531 net198
*532 net199
*533 net2
*534 net20
*535 net200
*536 net201
*537 net202
*538 net203
*539 net204
*540 net205
*541 net206
*542 net207
*543 net208
*544 net209
*545 net21
*546 net210
*547 net211
*548 net212
*549 net213
*550 net214
*551 net215
*552 net216
*553 net217
*554 net218
*555 net219
*556 net22
*557 net220
*558 net23
*559 net24
*560 net25
*561 net26
*562 net27
*563 net28
*564 net29
*565 net3
*566 net30
*567 net31
*568 net32
*569 net33
*570 net34
*571 net35
*572 net36
*573 net37
*574 net38
*575 net39
*576 net4
*577 net40
*578 net41
*579 net42
*580 net43
*581 net44
*582 net45
*583 net46
*584 net47
*585 net48
*586 net49
*587 net5
*588 net50
*589 net51
*590 net52
*591 net53
*592 net54
*593 net55
*594 net56
*595 net57
*596 net58
*597 net59
*598 net6
*599 net60
*600 net61
*601 net62
*602 net63
*603 net64
*604 net65
*605 net66
*606 net67
*607 net68
*608 net69
*609 net7
*610 net70
*611 net71
*612 net72
*613 net73
*614 net74
*615 net75
*616 net76
*617 net77
*618 net78
*619 net79
*620 net8
*621 net80
*622 net81
*623 net82
*624 net83
*625 net84
*626 net85
*627 net86
*628 net87
*629 net88
*630 net89
*631 net9
*632 net90
*633 net91
*634 net92
*635 net93
*636 net94
*637 net95
*638 net96
*639 net97
*640 net98
*641 net99
*642 FILLER_0_102
*643 FILLER_0_109
*644 FILLER_0_11
*645 FILLER_0_116
*646 FILLER_0_118
*647 FILLER_0_18
*648 FILLER_0_25
*649 FILLER_0_32
*650 FILLER_0_39
*651 FILLER_0_4
*652 FILLER_0_46
*653 FILLER_0_53
*654 FILLER_0_60
*655 FILLER_0_67
*656 FILLER_0_74
*657 FILLER_0_81
*658 FILLER_0_88
*659 FILLER_0_95
*660 FILLER_10_0
*661 FILLER_10_112
*662 FILLER_10_114
*663 FILLER_10_14
*664 FILLER_10_20
*665 FILLER_10_66
*666 FILLER_10_68
*667 FILLER_10_7
*668 FILLER_10_73
*669 FILLER_11_11
*670 FILLER_11_4
*671 FILLER_11_70
*672 FILLER_11_88
*673 FILLER_12_11
*674 FILLER_12_110
*675 FILLER_12_30
*676 FILLER_12_37
*677 FILLER_12_4
*678 FILLER_12_49
*679 FILLER_12_55
*680 FILLER_12_62
*681 FILLER_13_11
*682 FILLER_13_22
*683 FILLER_13_26
*684 FILLER_13_4
*685 FILLER_13_40
*686 FILLER_13_76
*687 FILLER_14_0
*688 FILLER_14_109
*689 FILLER_14_14
*690 FILLER_14_21
*691 FILLER_14_53
*692 FILLER_14_57
*693 FILLER_14_7
*694 FILLER_15_11
*695 FILLER_15_114
*696 FILLER_15_4
*697 FILLER_15_50
*698 FILLER_15_56
*699 FILLER_15_63
*700 FILLER_15_67
*701 FILLER_15_90
*702 FILLER_15_92
*703 FILLER_16_11
*704 FILLER_16_18
*705 FILLER_16_37
*706 FILLER_16_4
*707 FILLER_16_48
*708 FILLER_16_50
*709 FILLER_16_56
*710 FILLER_16_73
*711 FILLER_16_77
*712 FILLER_17_11
*713 FILLER_17_18
*714 FILLER_17_4
*715 FILLER_18_0
*716 FILLER_18_117
*717 FILLER_18_30
*718 FILLER_18_7
*719 FILLER_18_79
*720 FILLER_18_98
*721 FILLER_19_112
*722 FILLER_19_114
*723 FILLER_19_4
*724 FILLER_19_41
*725 FILLER_19_43
*726 FILLER_19_6
*727 FILLER_19_90
*728 FILLER_1_102
*729 FILLER_1_109
*730 FILLER_1_11
*731 FILLER_1_113
*732 FILLER_1_18
*733 FILLER_1_25
*734 FILLER_1_32
*735 FILLER_1_39
*736 FILLER_1_4
*737 FILLER_1_45
*738 FILLER_1_52
*739 FILLER_1_59
*740 FILLER_1_64
*741 FILLER_1_68
*742 FILLER_1_74
*743 FILLER_1_81
*744 FILLER_1_88
*745 FILLER_1_95
*746 FILLER_20_11
*747 FILLER_20_18
*748 FILLER_20_37
*749 FILLER_20_4
*750 FILLER_20_56
*751 FILLER_20_72
*752 FILLER_21_117
*753 FILLER_21_34
*754 FILLER_21_36
*755 FILLER_21_4
*756 FILLER_21_41
*757 FILLER_21_43
*758 FILLER_21_49
*759 FILLER_21_60
*760 FILLER_21_8
*761 FILLER_22_0
*762 FILLER_22_104
*763 FILLER_22_110
*764 FILLER_22_14
*765 FILLER_22_18
*766 FILLER_22_24
*767 FILLER_22_28
*768 FILLER_22_46
*769 FILLER_22_53
*770 FILLER_22_55
*771 FILLER_22_7
*772 FILLER_22_81
*773 FILLER_23_116
*774 FILLER_23_118
*775 FILLER_23_27
*776 FILLER_23_34
*777 FILLER_23_4
*778 FILLER_23_41
*779 FILLER_23_48
*780 FILLER_23_55
*781 FILLER_23_8
*782 FILLER_23_90
*783 FILLER_24_11
*784 FILLER_24_116
*785 FILLER_24_118
*786 FILLER_24_32
*787 FILLER_24_34
*788 FILLER_24_39
*789 FILLER_24_4
*790 FILLER_24_47
*791 FILLER_24_54
*792 FILLER_24_58
*793 FILLER_24_64
*794 FILLER_24_68
*795 FILLER_25_110
*796 FILLER_25_4
*797 FILLER_25_65
*798 FILLER_25_67
*799 FILLER_25_72
*800 FILLER_25_74
*801 FILLER_25_79
*802 FILLER_25_8
*803 FILLER_26_0
*804 FILLER_26_117
*805 FILLER_26_32
*806 FILLER_26_7
*807 FILLER_26_75
*808 FILLER_26_79
*809 FILLER_27_11
*810 FILLER_27_117
*811 FILLER_27_15
*812 FILLER_27_4
*813 FILLER_28_11
*814 FILLER_28_117
*815 FILLER_28_4
*816 FILLER_28_55
*817 FILLER_28_62
*818 FILLER_28_99
*819 FILLER_29_11
*820 FILLER_29_117
*821 FILLER_29_18
*822 FILLER_29_25
*823 FILLER_29_29
*824 FILLER_29_4
*825 FILLER_29_64
*826 FILLER_29_93
*827 FILLER_29_95
*828 FILLER_2_0
*829 FILLER_2_106
*830 FILLER_2_110
*831 FILLER_2_14
*832 FILLER_2_21
*833 FILLER_2_28
*834 FILLER_2_64
*835 FILLER_2_66
*836 FILLER_2_7
*837 FILLER_2_92
*838 FILLER_2_99
*839 FILLER_30_0
*840 FILLER_30_27
*841 FILLER_30_38
*842 FILLER_30_45
*843 FILLER_30_52
*844 FILLER_30_56
*845 FILLER_30_7
*846 FILLER_30_9
*847 FILLER_30_96
*848 FILLER_31_106
*849 FILLER_31_15
*850 FILLER_31_33
*851 FILLER_31_35
*852 FILLER_31_70
*853 FILLER_31_8
*854 FILLER_31_86
*855 FILLER_31_88
*856 FILLER_32_38
*857 FILLER_32_81
*858 FILLER_32_88
*859 FILLER_33_11
*860 FILLER_33_117
*861 FILLER_33_4
*862 FILLER_33_57
*863 FILLER_33_61
*864 FILLER_33_68
*865 FILLER_33_75
*866 FILLER_33_82
*867 FILLER_33_86
*868 FILLER_34_0
*869 FILLER_34_116
*870 FILLER_34_118
*871 FILLER_34_14
*872 FILLER_34_21
*873 FILLER_34_28
*874 FILLER_34_49
*875 FILLER_34_56
*876 FILLER_34_7
*877 FILLER_34_75
*878 FILLER_34_77
*879 FILLER_35_11
*880 FILLER_35_118
*881 FILLER_35_13
*882 FILLER_35_31
*883 FILLER_35_38
*884 FILLER_35_4
*885 FILLER_35_45
*886 FILLER_35_52
*887 FILLER_36_11
*888 FILLER_36_110
*889 FILLER_36_16
*890 FILLER_36_37
*891 FILLER_36_4
*892 FILLER_36_41
*893 FILLER_36_51
*894 FILLER_36_53
*895 FILLER_36_88
*896 FILLER_37_11
*897 FILLER_37_18
*898 FILLER_37_25
*899 FILLER_37_4
*900 FILLER_37_75
*901 FILLER_37_82
*902 FILLER_37_84
*903 FILLER_38_0
*904 FILLER_38_110
*905 FILLER_38_14
*906 FILLER_38_21
*907 FILLER_38_7
*908 FILLER_39_104
*909 FILLER_39_106
*910 FILLER_39_11
*911 FILLER_39_15
*912 FILLER_39_4
*913 FILLER_39_63
*914 FILLER_39_85
*915 FILLER_3_100
*916 FILLER_3_11
*917 FILLER_3_18
*918 FILLER_3_4
*919 FILLER_40_11
*920 FILLER_40_4
*921 FILLER_40_57
*922 FILLER_40_64
*923 FILLER_40_68
*924 FILLER_40_91
*925 FILLER_41_108
*926 FILLER_41_11
*927 FILLER_41_110
*928 FILLER_41_18
*929 FILLER_41_25
*930 FILLER_41_4
*931 FILLER_41_63
*932 FILLER_41_65
*933 FILLER_42_0
*934 FILLER_42_108
*935 FILLER_42_110
*936 FILLER_42_14
*937 FILLER_42_21
*938 FILLER_42_39
*939 FILLER_42_46
*940 FILLER_42_7
*941 FILLER_42_82
*942 FILLER_43_11
*943 FILLER_43_110
*944 FILLER_43_18
*945 FILLER_43_25
*946 FILLER_43_32
*947 FILLER_43_4
*948 FILLER_44_11
*949 FILLER_44_18
*950 FILLER_44_25
*951 FILLER_44_27
*952 FILLER_44_4
*953 FILLER_44_49
*954 FILLER_44_56
*955 FILLER_45_11
*956 FILLER_45_112
*957 FILLER_45_114
*958 FILLER_45_18
*959 FILLER_45_25
*960 FILLER_45_29
*961 FILLER_45_4
*962 FILLER_45_59
*963 FILLER_45_66
*964 FILLER_45_73
*965 FILLER_45_80
*966 FILLER_45_82
*967 FILLER_46_0
*968 FILLER_46_14
*969 FILLER_46_18
*970 FILLER_46_7
*971 FILLER_46_71
*972 FILLER_46_78
*973 FILLER_46_85
*974 FILLER_47_11
*975 FILLER_47_18
*976 FILLER_47_25
*977 FILLER_47_4
*978 FILLER_47_81
*979 FILLER_48_101
*980 FILLER_48_106
*981 FILLER_48_11
*982 FILLER_48_18
*983 FILLER_48_25
*984 FILLER_48_4
*985 FILLER_48_99
*986 FILLER_49_11
*987 FILLER_49_18
*988 FILLER_49_25
*989 FILLER_49_29
*990 FILLER_49_4
*991 FILLER_49_89
*992 FILLER_49_96
*993 FILLER_49_98
*994 FILLER_4_102
*995 FILLER_4_109
*996 FILLER_4_4
*997 FILLER_4_95
*998 FILLER_50_0
*999 FILLER_50_101
*1000 FILLER_50_14
*1001 FILLER_50_21
*1002 FILLER_50_28
*1003 FILLER_50_35
*1004 FILLER_50_42
*1005 FILLER_50_7
*1006 FILLER_50_83
*1007 FILLER_50_90
*1008 FILLER_50_97
*1009 FILLER_51_102
*1010 FILLER_51_106
*1011 FILLER_51_11
*1012 FILLER_51_18
*1013 FILLER_51_25
*1014 FILLER_51_32
*1015 FILLER_51_39
*1016 FILLER_51_4
*1017 FILLER_51_46
*1018 FILLER_51_53
*1019 FILLER_51_60
*1020 FILLER_51_67
*1021 FILLER_51_74
*1022 FILLER_51_81
*1023 FILLER_51_88
*1024 FILLER_51_95
*1025 FILLER_52_102
*1026 FILLER_52_106
*1027 FILLER_52_11
*1028 FILLER_52_18
*1029 FILLER_52_25
*1030 FILLER_52_32
*1031 FILLER_52_39
*1032 FILLER_52_4
*1033 FILLER_52_46
*1034 FILLER_52_53
*1035 FILLER_52_60
*1036 FILLER_52_67
*1037 FILLER_52_74
*1038 FILLER_52_81
*1039 FILLER_52_88
*1040 FILLER_52_95
*1041 FILLER_53_102
*1042 FILLER_53_109
*1043 FILLER_53_11
*1044 FILLER_53_18
*1045 FILLER_53_25
*1046 FILLER_53_32
*1047 FILLER_53_39
*1048 FILLER_53_4
*1049 FILLER_53_46
*1050 FILLER_53_53
*1051 FILLER_53_60
*1052 FILLER_53_67
*1053 FILLER_53_74
*1054 FILLER_53_81
*1055 FILLER_53_88
*1056 FILLER_53_95
*1057 FILLER_54_0
*1058 FILLER_54_114
*1059 FILLER_54_14
*1060 FILLER_54_21
*1061 FILLER_54_28
*1062 FILLER_54_35
*1063 FILLER_54_42
*1064 FILLER_54_49
*1065 FILLER_54_56
*1066 FILLER_54_63
*1067 FILLER_54_7
*1068 FILLER_54_70
*1069 FILLER_54_77
*1070 FILLER_54_84
*1071 FILLER_54_91
*1072 FILLER_54_98
*1073 FILLER_55_100
*1074 FILLER_55_102
*1075 FILLER_55_11
*1076 FILLER_55_18
*1077 FILLER_55_25
*1078 FILLER_55_32
*1079 FILLER_55_39
*1080 FILLER_55_4
*1081 FILLER_55_46
*1082 FILLER_55_53
*1083 FILLER_55_60
*1084 FILLER_55_67
*1085 FILLER_55_74
*1086 FILLER_55_79
*1087 FILLER_55_86
*1088 FILLER_55_93
*1089 FILLER_56_11
*1090 FILLER_56_113
*1091 FILLER_56_18
*1092 FILLER_56_25
*1093 FILLER_56_32
*1094 FILLER_56_39
*1095 FILLER_56_4
*1096 FILLER_56_46
*1097 FILLER_56_53
*1098 FILLER_56_60
*1099 FILLER_56_67
*1100 FILLER_56_74
*1101 FILLER_56_81
*1102 FILLER_56_88
*1103 FILLER_56_95
*1104 FILLER_57_103
*1105 FILLER_57_11
*1106 FILLER_57_117
*1107 FILLER_57_18
*1108 FILLER_57_25
*1109 FILLER_57_32
*1110 FILLER_57_37
*1111 FILLER_57_4
*1112 FILLER_57_48
*1113 FILLER_57_55
*1114 FILLER_57_62
*1115 FILLER_57_69
*1116 FILLER_57_76
*1117 FILLER_57_82
*1118 FILLER_57_89
*1119 FILLER_57_93
*1120 FILLER_58_109
*1121 FILLER_58_15
*1122 FILLER_58_22
*1123 FILLER_58_29
*1124 FILLER_58_36
*1125 FILLER_58_43
*1126 FILLER_58_50
*1127 FILLER_58_57
*1128 FILLER_58_64
*1129 FILLER_58_71
*1130 FILLER_58_78
*1131 FILLER_58_8
*1132 FILLER_58_85
*1133 FILLER_58_92
*1134 FILLER_59_105
*1135 FILLER_59_15
*1136 FILLER_59_21
*1137 FILLER_59_27
*1138 FILLER_59_33
*1139 FILLER_59_39
*1140 FILLER_59_4
*1141 FILLER_59_45
*1142 FILLER_59_51
*1143 FILLER_59_57
*1144 FILLER_59_63
*1145 FILLER_59_69
*1146 FILLER_59_75
*1147 FILLER_59_81
*1148 FILLER_59_87
*1149 FILLER_59_9
*1150 FILLER_59_93
*1151 FILLER_59_99
*1152 FILLER_5_102
*1153 FILLER_5_109
*1154 FILLER_5_11
*1155 FILLER_5_18
*1156 FILLER_5_4
*1157 FILLER_5_95
*1158 FILLER_6_0
*1159 FILLER_6_104
*1160 FILLER_6_106
*1161 FILLER_6_14
*1162 FILLER_6_21
*1163 FILLER_6_25
*1164 FILLER_6_43
*1165 FILLER_6_50
*1166 FILLER_6_54
*1167 FILLER_6_7
*1168 FILLER_6_83
*1169 FILLER_6_90
*1170 FILLER_6_97
*1171 FILLER_7_11
*1172 FILLER_7_18
*1173 FILLER_7_25
*1174 FILLER_7_32
*1175 FILLER_7_4
*1176 FILLER_7_40
*1177 FILLER_7_46
*1178 FILLER_7_53
*1179 FILLER_7_57
*1180 FILLER_7_75
*1181 FILLER_7_82
*1182 FILLER_7_89
*1183 FILLER_7_96
*1184 FILLER_8_101
*1185 FILLER_8_11
*1186 FILLER_8_18
*1187 FILLER_8_25
*1188 FILLER_8_29
*1189 FILLER_8_4
*1190 FILLER_8_52
*1191 FILLER_8_56
*1192 FILLER_8_78
*1193 FILLER_8_94
*1194 FILLER_9_11
*1195 FILLER_9_18
*1196 FILLER_9_36
*1197 FILLER_9_4
*1198 FILLER_9_63
*1199 FILLER_9_86
*1200 FILLER_9_93
*1201 _049_
*1202 _050_
*1203 _051_
*1204 _052_
*1205 _053_
*1206 _054_
*1207 _055_
*1208 _056_
*1209 _057_
*1210 _058_
*1211 _059_
*1212 _060_
*1213 _061_
*1214 _062_
*1215 _063_
*1216 _064_
*1217 _065_
*1218 _066_
*1219 _067_
*1220 _068_
*1221 _069_
*1222 _070_
*1223 _071_
*1224 _072_
*1225 _073_
*1226 _074_
*1227 _075_
*1228 _076_
*1229 _077_
*1230 _078_
*1231 _079_
*1232 _080_
*1233 _081_
*1234 _082_
*1235 _083_
*1236 _084_
*1237 _085_
*1238 _086_
*1239 _087_
*1240 _088_
*1241 _089_
*1242 _090_
*1243 _091_
*1244 _092_
*1245 _093_
*1246 _094_
*1247 _095_
*1248 _096_
*1249 _097_
*1250 _098_
*1251 _099_
*1252 _100_
*1253 _101_
*1254 _102_
*1255 _103_
*1256 _104_
*1257 _105_
*1258 _106_
*1259 _107_
*1260 _108_
*1261 _109_
*1262 _110_
*1263 _111_
*1264 _112_
*1265 _113_
*1266 _114_
*1267 _115_
*1268 _116_
*1269 _117_
*1270 _118_
*1271 _119_
*1272 _120_
*1273 _121_
*1274 _122_
*1275 _123_
*1276 _124_
*1277 _125_
*1278 _126_
*1279 _127_
*1280 _128_
*1281 _129_
*1282 _130_
*1283 _131_
*1284 _132_
*1285 _133_
*1286 _134_
*1287 _135_
*1288 _136_
*1289 _137_
*1290 _138_
*1291 _139_
*1292 _140_
*1293 _141_
*1294 _142_
*1295 _143_
*1296 _144_
*1297 _145_
*1298 _146_
*1299 _147_
*1300 _148_
*1301 _149_
*1302 _150_
*1303 _151_
*1304 _152_
*1305 _153_
*1306 _154_
*1307 _155_
*1308 _156_
*1309 _157_
*1310 _158_
*1311 _159_
*1312 _160_
*1313 _161_
*1314 _162_
*1315 _163_
*1316 _164_
*1317 _165_
*1318 _166_
*1319 _167_
*1320 _168_
*1321 _169_
*1322 _170_
*1323 _171_
*1324 _172_
*1325 _173_
*1326 _174_
*1327 _175_
*1328 _176_
*1329 _177_
*1330 _178_
*1331 _179_
*1332 _180_
*1333 _181_
*1334 _182_
*1335 _183_
*1336 _184_
*1337 _185_
*1338 _186_
*1339 _187_
*1340 _188_
*1341 _189_
*1342 _190_
*1343 _191_
*1344 _192_
*1345 _193_
*1346 _194_
*1347 _195_
*1348 _196_
*1349 _197_
*1350 _198_
*1351 _199_
*1352 _200_
*1353 _201_
*1354 _202_
*1355 _203_
*1356 _204_
*1357 _205_
*1358 _206_
*1359 _207_
*1360 _208_
*1361 _209_
*1362 _210_
*1363 _211_
*1364 _212_
*1365 _213_
*1366 _214_
*1367 _215_
*1368 _216_
*1369 _217_
*1370 _218_
*1371 _219_
*1372 _220_
*1373 _221_
*1374 _222_
*1375 _223_
*1376 _224_
*1377 _225_
*1378 _226_
*1379 _227_
*1380 _228_
*1381 _229_
*1382 _230_
*1383 _231_
*1384 _232_
*1385 _233_
*1386 _234_
*1387 _235_
*1388 _236_
*1389 _237_
*1390 _238_
*1391 _239_
*1392 _240_
*1393 _241_
*1394 _242_
*1395 _243_
*1396 _244_
*1397 _245_
*1398 _246_
*1399 _247_
*1400 _248_
*1401 _249_
*1402 _250_
*1403 _251_
*1404 _252_
*1405 _253_
*1406 _254_
*1407 _255_
*1408 _256_
*1409 _257_
*1410 _258_
*1411 _259_
*1412 _260_
*1413 _260__196
*1414 _261_
*1415 _261__197
*1416 _264_
*1417 _265_
*1418 _266_
*1419 _267_
*1420 _268_
*1421 _269_
*1422 _270_
*1423 _271_
*1424 _272_
*1425 _273_
*1426 _274_
*1427 _275_
*1428 _276_
*1429 _277_
*1430 _278_
*1431 _279_
*1432 _280_
*1433 _281_
*1434 _282_
*1435 _283_
*1436 _284_
*1437 _285_
*1438 _286_
*1439 _287_
*1440 _288_
*1441 _289_
*1442 _290_
*1443 _291_
*1444 _292_
*1445 _293_
*1446 _294_
*1447 _295_
*1448 _296_
*1449 _297_
*1450 _298_
*1451 _299_
*1452 _300_
*1453 _301_
*1454 _302_
*1455 _303_
*1456 _304_
*1457 _305_
*1458 _306_
*1459 _307_
*1460 _308_
*1461 _309_
*1462 _310_
*1463 _311_
*1464 _312_
*1465 _313_
*1466 _314_
*1467 _315_
*1468 _316_
*1469 _317_
*1470 _318_
*1471 _319_
*1472 _320_
*1473 _321_
*1474 _322_
*1475 _323_
*1476 _324_
*1477 _325_
*1478 _326_
*1479 _327_
*1480 _328_
*1481 _329_
*1482 _330_
*1483 _331_
*1484 _332_
*1485 _333_
*1486 _334_
*1487 _335_
*1488 _336_
*1489 _337_
*1490 _338_
*1491 _339_
*1492 _340_
*1493 _341_
*1494 _342_
*1495 _343_
*1496 _344_
*1497 _345_
*1498 _346_
*1499 _347_
*1500 _348_
*1501 _349_
*1502 _350_
*1503 _351_
*1504 _352_
*1505 _353_
*1506 _354_
*1507 _355_
*1508 _356_
*1509 _357_
*1510 _358_
*1511 _359_
*1512 _360_
*1513 _361_
*1514 _362_
*1515 _363_
*1516 _364_
*1517 fanout66
*1518 fanout67
*1519 fanout68
*1520 fanout69
*1521 fanout70
*1522 fanout71
*1523 fanout72
*1524 fanout73
*1525 fanout74
*1526 fanout75
*1527 fanout76
*1528 fanout77
*1529 fanout78
*1530 fanout79
*1531 fanout80
*1532 fanout81
*1533 fanout82
*1534 fanout83
*1535 fanout84
*1536 fanout85
*1537 fanout86
*1538 fanout87
*1539 fanout88
*1540 input1
*1541 input10
*1542 input11
*1543 input12
*1544 input13
*1545 input14
*1546 input15
*1547 input16
*1548 input17
*1549 input18
*1550 input19
*1551 input2
*1552 input20
*1553 input21
*1554 input22
*1555 input23
*1556 input24
*1557 input25
*1558 input26
*1559 input27
*1560 input28
*1561 input29
*1562 input3
*1563 input30
*1564 input31
*1565 input32
*1566 input33
*1567 input34
*1568 input35
*1569 input36
*1570 input37
*1571 input38
*1572 input39
*1573 input4
*1574 input40
*1575 input41
*1576 input42
*1577 input43
*1578 input44
*1579 input45
*1580 input46
*1581 input47
*1582 input48
*1583 input49
*1584 input5
*1585 input50
*1586 input51
*1587 input52
*1588 input53
*1589 input54
*1590 input55
*1591 input56
*1592 input57
*1593 input58
*1594 input59
*1595 input6
*1596 input60
*1597 input61
*1598 input62
*1599 input63
*1600 input64
*1601 input65
*1602 input66
*1603 input67
*1604 input68
*1605 input69
*1606 input7
*1607 input70
*1608 input71
*1609 input72
*1610 input73
*1611 input74
*1612 input75
*1613 input76
*1614 input77
*1615 input78
*1616 input79
*1617 input8
*1618 input80
*1619 input81
*1620 input82
*1621 input9
*1622 output100
*1623 output101
*1624 output102
*1625 output103
*1626 output104
*1627 output105
*1628 output106
*1629 output107
*1630 output108
*1631 output109
*1632 output110
*1633 output111
*1634 output112
*1635 output113
*1636 output114
*1637 output115
*1638 output116
*1639 output117
*1640 output118
*1641 output119
*1642 output120
*1643 output121
*1644 output122
*1645 output123
*1646 output124
*1647 output125
*1648 output126
*1649 output127
*1650 output128
*1651 output129
*1652 output130
*1653 output131
*1654 output132
*1655 output133
*1656 output134
*1657 output135
*1658 output136
*1659 output137
*1660 output138