* NGSPICE file created from RegFile.ext - technology: ihp-sg13g2

* Black-box entry subcircuit for sg13g2_o21ai_1 abstract view
.subckt sg13g2_o21ai_1 B1 VDD Y VSS A1 A2
.ends

* Black-box entry subcircuit for sg13g2_dlhq_1 abstract view
.subckt sg13g2_dlhq_1 D GATE Q VDD VSS
.ends

* Black-box entry subcircuit for sg13g2_mux4_1 abstract view
.subckt sg13g2_mux4_1 S0 A0 A1 A2 A3 S1 X VDD VSS
.ends

* Black-box entry subcircuit for sg13g2_fill_2 abstract view
.subckt sg13g2_fill_2 VDD VSS
.ends

* Black-box entry subcircuit for sg13g2_dlygate4sd3_1 abstract view
.subckt sg13g2_dlygate4sd3_1 A VDD VSS X
.ends

* Black-box entry subcircuit for sg13g2_dlygate4sd1_1 abstract view
.subckt sg13g2_dlygate4sd1_1 A X VDD VSS
.ends

* Black-box entry subcircuit for sg13g2_decap_8 abstract view
.subckt sg13g2_decap_8 VDD VSS
.ends

* Black-box entry subcircuit for sg13g2_tiehi abstract view
.subckt sg13g2_tiehi VDD VSS L_HI
.ends

* Black-box entry subcircuit for sg13g2_mux2_1 abstract view
.subckt sg13g2_mux2_1 A0 A1 S X VDD VSS
.ends

* Black-box entry subcircuit for sg13g2_buf_1 abstract view
.subckt sg13g2_buf_1 A X VDD VSS
.ends

* Black-box entry subcircuit for sg13g2_nor2_2 abstract view
.subckt sg13g2_nor2_2 A B Y VDD VSS
.ends

* Black-box entry subcircuit for sg13g2_inv_1 abstract view
.subckt sg13g2_inv_1 VDD Y A VSS
.ends

* Black-box entry subcircuit for sg13g2_nor2b_1 abstract view
.subckt sg13g2_nor2b_1 A B_N Y VDD VSS
.ends

* Black-box entry subcircuit for sg13g2_nand2_1 abstract view
.subckt sg13g2_nand2_1 Y A B VDD VSS
.ends

* Black-box entry subcircuit for sg13g2_nand2b_1 abstract view
.subckt sg13g2_nand2b_1 Y B A_N VDD VSS
.ends

* Black-box entry subcircuit for sg13g2_fill_1 abstract view
.subckt sg13g2_fill_1 VDD VSS
.ends

* Black-box entry subcircuit for sg13g2_a21o_1 abstract view
.subckt sg13g2_a21o_1 A2 A1 B1 X VDD VSS
.ends

* Black-box entry subcircuit for sg13g2_a21oi_1 abstract view
.subckt sg13g2_a21oi_1 VSS VDD A1 A2 Y B1
.ends

* Black-box entry subcircuit for sg13g2_decap_4 abstract view
.subckt sg13g2_decap_4 VDD VSS
.ends

* Black-box entry subcircuit for sg13g2_buf_16 abstract view
.subckt sg13g2_buf_16 X A VDD VSS
.ends

* Black-box entry subcircuit for sg13g2_a22oi_1 abstract view
.subckt sg13g2_a22oi_1 Y B1 B2 A2 A1 VDD VSS
.ends

* Black-box entry subcircuit for sg13g2_a221oi_1 abstract view
.subckt sg13g2_a221oi_1 VSS VDD B2 C1 B1 A1 Y A2
.ends

* Black-box entry subcircuit for sg13g2_or2_1 abstract view
.subckt sg13g2_or2_1 VSS VDD X B A
.ends

* Black-box entry subcircuit for sg13g2_dfrbp_1 abstract view
.subckt sg13g2_dfrbp_1 CLK RESET_B D Q_N Q VDD VSS
.ends

* Black-box entry subcircuit for sg13g2_buf_8 abstract view
.subckt sg13g2_buf_8 A X VDD VSS
.ends

* Black-box entry subcircuit for sg13g2_a21oi_2 abstract view
.subckt sg13g2_a21oi_2 VSS VDD B1 Y A2 A1
.ends

* Black-box entry subcircuit for sg13g2_or3_1 abstract view
.subckt sg13g2_or3_1 A B C X VDD VSS
.ends

* Black-box entry subcircuit for sg13g2_buf_2 abstract view
.subckt sg13g2_buf_2 A X VDD VSS
.ends

* Black-box entry subcircuit for sg13g2_nand3b_1 abstract view
.subckt sg13g2_nand3b_1 B C Y VDD VSS A_N
.ends

* Black-box entry subcircuit for sg13g2_nand3_1 abstract view
.subckt sg13g2_nand3_1 B C A Y VDD VSS
.ends

* Black-box entry subcircuit for sg13g2_and2_1 abstract view
.subckt sg13g2_and2_1 A B X VDD VSS
.ends

* Black-box entry subcircuit for sg13g2_nand2_2 abstract view
.subckt sg13g2_nand2_2 Y A B VDD VSS
.ends

* Black-box entry subcircuit for sg13g2_nor3_2 abstract view
.subckt sg13g2_nor3_2 A B C Y VDD VSS
.ends

* Black-box entry subcircuit for sg13g2_and2_2 abstract view
.subckt sg13g2_and2_2 A B X VDD VSS
.ends

* Black-box entry subcircuit for sg13g2_nor2_1 abstract view
.subckt sg13g2_nor2_1 A B Y VDD VSS
.ends

* Black-box entry subcircuit for sg13g2_mux2_2 abstract view
.subckt sg13g2_mux2_2 A0 A1 S X VDD VSS
.ends

* Black-box entry subcircuit for sg13g2_inv_4 abstract view
.subckt sg13g2_inv_4 A Y VDD VSS
.ends

* Black-box entry subcircuit for sg13g2_a21o_2 abstract view
.subckt sg13g2_a21o_2 A2 A1 B1 X VDD VSS
.ends

* Black-box entry subcircuit for sg13g2_nor3_1 abstract view
.subckt sg13g2_nor3_1 A B C Y VDD VSS
.ends

* Black-box entry subcircuit for sg13g2_inv_2 abstract view
.subckt sg13g2_inv_2 Y A VDD VSS
.ends

* Black-box entry subcircuit for sg13g2_nor2b_2 abstract view
.subckt sg13g2_nor2b_2 A B_N Y VDD VSS
.ends

* Black-box entry subcircuit for sg13g2_inv_16 abstract view
.subckt sg13g2_inv_16 A Y VDD VSS
.ends

.subckt RegFile E1BEG[0] E1BEG[1] E1BEG[2] E1BEG[3] E1END[0] E1END[1] E1END[2] E1END[3]
+ E2BEG[0] E2BEG[1] E2BEG[2] E2BEG[3] E2BEG[4] E2BEG[5] E2BEG[6] E2BEG[7] E2BEGb[0]
+ E2BEGb[1] E2BEGb[2] E2BEGb[3] E2BEGb[4] E2BEGb[5] E2BEGb[6] E2BEGb[7] E2END[0] E2END[1]
+ E2END[2] E2END[3] E2END[4] E2END[5] E2END[6] E2END[7] E2MID[0] E2MID[1] E2MID[2]
+ E2MID[3] E2MID[4] E2MID[5] E2MID[6] E2MID[7] E6BEG[0] E6BEG[10] E6BEG[11] E6BEG[1]
+ E6BEG[2] E6BEG[3] E6BEG[4] E6BEG[5] E6BEG[6] E6BEG[7] E6BEG[8] E6BEG[9] E6END[0]
+ E6END[10] E6END[11] E6END[1] E6END[2] E6END[3] E6END[4] E6END[5] E6END[6] E6END[7]
+ E6END[8] E6END[9] EE4BEG[0] EE4BEG[10] EE4BEG[11] EE4BEG[12] EE4BEG[13] EE4BEG[14]
+ EE4BEG[15] EE4BEG[1] EE4BEG[2] EE4BEG[3] EE4BEG[4] EE4BEG[5] EE4BEG[6] EE4BEG[7]
+ EE4BEG[8] EE4BEG[9] EE4END[0] EE4END[10] EE4END[11] EE4END[12] EE4END[13] EE4END[14]
+ EE4END[15] EE4END[1] EE4END[2] EE4END[3] EE4END[4] EE4END[5] EE4END[6] EE4END[7]
+ EE4END[8] EE4END[9] FrameData[0] FrameData[10] FrameData[11] FrameData[12] FrameData[13]
+ FrameData[14] FrameData[15] FrameData[16] FrameData[17] FrameData[18] FrameData[19]
+ FrameData[1] FrameData[20] FrameData[21] FrameData[22] FrameData[23] FrameData[24]
+ FrameData[25] FrameData[26] FrameData[27] FrameData[28] FrameData[29] FrameData[2]
+ FrameData[30] FrameData[31] FrameData[3] FrameData[4] FrameData[5] FrameData[6]
+ FrameData[7] FrameData[8] FrameData[9] FrameData_O[0] FrameData_O[10] FrameData_O[11]
+ FrameData_O[12] FrameData_O[13] FrameData_O[14] FrameData_O[15] FrameData_O[16]
+ FrameData_O[17] FrameData_O[18] FrameData_O[19] FrameData_O[1] FrameData_O[20] FrameData_O[21]
+ FrameData_O[22] FrameData_O[23] FrameData_O[24] FrameData_O[25] FrameData_O[26]
+ FrameData_O[27] FrameData_O[28] FrameData_O[29] FrameData_O[2] FrameData_O[30] FrameData_O[31]
+ FrameData_O[3] FrameData_O[4] FrameData_O[5] FrameData_O[6] FrameData_O[7] FrameData_O[8]
+ FrameData_O[9] FrameStrobe[0] FrameStrobe[10] FrameStrobe[11] FrameStrobe[12] FrameStrobe[13]
+ FrameStrobe[14] FrameStrobe[15] FrameStrobe[16] FrameStrobe[17] FrameStrobe[18]
+ FrameStrobe[19] FrameStrobe[1] FrameStrobe[2] FrameStrobe[3] FrameStrobe[4] FrameStrobe[5]
+ FrameStrobe[6] FrameStrobe[7] FrameStrobe[8] FrameStrobe[9] FrameStrobe_O[0] FrameStrobe_O[10]
+ FrameStrobe_O[11] FrameStrobe_O[12] FrameStrobe_O[13] FrameStrobe_O[14] FrameStrobe_O[15]
+ FrameStrobe_O[16] FrameStrobe_O[17] FrameStrobe_O[18] FrameStrobe_O[19] FrameStrobe_O[1]
+ FrameStrobe_O[2] FrameStrobe_O[3] FrameStrobe_O[4] FrameStrobe_O[5] FrameStrobe_O[6]
+ FrameStrobe_O[7] FrameStrobe_O[8] FrameStrobe_O[9] N1BEG[0] N1BEG[1] N1BEG[2] N1BEG[3]
+ N1END[0] N1END[1] N1END[2] N1END[3] N2BEG[0] N2BEG[1] N2BEG[2] N2BEG[3] N2BEG[4]
+ N2BEG[5] N2BEG[6] N2BEG[7] N2BEGb[0] N2BEGb[1] N2BEGb[2] N2BEGb[3] N2BEGb[4] N2BEGb[5]
+ N2BEGb[6] N2BEGb[7] N2END[0] N2END[1] N2END[2] N2END[3] N2END[4] N2END[5] N2END[6]
+ N2END[7] N2MID[0] N2MID[1] N2MID[2] N2MID[3] N2MID[4] N2MID[5] N2MID[6] N2MID[7]
+ N4BEG[0] N4BEG[10] N4BEG[11] N4BEG[12] N4BEG[13] N4BEG[14] N4BEG[15] N4BEG[1] N4BEG[2]
+ N4BEG[3] N4BEG[4] N4BEG[5] N4BEG[6] N4BEG[7] N4BEG[8] N4BEG[9] N4END[0] N4END[10]
+ N4END[11] N4END[12] N4END[13] N4END[14] N4END[15] N4END[1] N4END[2] N4END[3] N4END[4]
+ N4END[5] N4END[6] N4END[7] N4END[8] N4END[9] NN4BEG[0] NN4BEG[10] NN4BEG[11] NN4BEG[12]
+ NN4BEG[13] NN4BEG[14] NN4BEG[15] NN4BEG[1] NN4BEG[2] NN4BEG[3] NN4BEG[4] NN4BEG[5]
+ NN4BEG[6] NN4BEG[7] NN4BEG[8] NN4BEG[9] NN4END[0] NN4END[10] NN4END[11] NN4END[12]
+ NN4END[13] NN4END[14] NN4END[15] NN4END[1] NN4END[2] NN4END[3] NN4END[4] NN4END[5]
+ NN4END[6] NN4END[7] NN4END[8] NN4END[9] S1BEG[0] S1BEG[1] S1BEG[2] S1BEG[3] S1END[0]
+ S1END[1] S1END[2] S1END[3] S2BEG[0] S2BEG[1] S2BEG[2] S2BEG[3] S2BEG[4] S2BEG[5]
+ S2BEG[6] S2BEG[7] S2BEGb[0] S2BEGb[1] S2BEGb[2] S2BEGb[3] S2BEGb[4] S2BEGb[5] S2BEGb[6]
+ S2BEGb[7] S2END[0] S2END[1] S2END[2] S2END[3] S2END[4] S2END[5] S2END[6] S2END[7]
+ S2MID[0] S2MID[1] S2MID[2] S2MID[3] S2MID[4] S2MID[5] S2MID[6] S2MID[7] S4BEG[0]
+ S4BEG[10] S4BEG[11] S4BEG[12] S4BEG[13] S4BEG[14] S4BEG[15] S4BEG[1] S4BEG[2] S4BEG[3]
+ S4BEG[4] S4BEG[5] S4BEG[6] S4BEG[7] S4BEG[8] S4BEG[9] S4END[0] S4END[10] S4END[11]
+ S4END[12] S4END[13] S4END[14] S4END[15] S4END[1] S4END[2] S4END[3] S4END[4] S4END[5]
+ S4END[6] S4END[7] S4END[8] S4END[9] SS4BEG[0] SS4BEG[10] SS4BEG[11] SS4BEG[12] SS4BEG[13]
+ SS4BEG[14] SS4BEG[15] SS4BEG[1] SS4BEG[2] SS4BEG[3] SS4BEG[4] SS4BEG[5] SS4BEG[6]
+ SS4BEG[7] SS4BEG[8] SS4BEG[9] SS4END[0] SS4END[10] SS4END[11] SS4END[12] SS4END[13]
+ SS4END[14] SS4END[15] SS4END[1] SS4END[2] SS4END[3] SS4END[4] SS4END[5] SS4END[6]
+ SS4END[7] SS4END[8] SS4END[9] UserCLK UserCLKo VGND VPWR W1BEG[0] W1BEG[1] W1BEG[2]
+ W1BEG[3] W1END[0] W1END[1] W1END[2] W1END[3] W2BEG[0] W2BEG[1] W2BEG[2] W2BEG[3]
+ W2BEG[4] W2BEG[5] W2BEG[6] W2BEG[7] W2BEGb[0] W2BEGb[1] W2BEGb[2] W2BEGb[3] W2BEGb[4]
+ W2BEGb[5] W2BEGb[6] W2BEGb[7] W2END[0] W2END[1] W2END[2] W2END[3] W2END[4] W2END[5]
+ W2END[6] W2END[7] W2MID[0] W2MID[1] W2MID[2] W2MID[3] W2MID[4] W2MID[5] W2MID[6]
+ W2MID[7] W6BEG[0] W6BEG[10] W6BEG[11] W6BEG[1] W6BEG[2] W6BEG[3] W6BEG[4] W6BEG[5]
+ W6BEG[6] W6BEG[7] W6BEG[8] W6BEG[9] W6END[0] W6END[10] W6END[11] W6END[1] W6END[2]
+ W6END[3] W6END[4] W6END[5] W6END[6] W6END[7] W6END[8] W6END[9] WW4BEG[0] WW4BEG[10]
+ WW4BEG[11] WW4BEG[12] WW4BEG[13] WW4BEG[14] WW4BEG[15] WW4BEG[1] WW4BEG[2] WW4BEG[3]
+ WW4BEG[4] WW4BEG[5] WW4BEG[6] WW4BEG[7] WW4BEG[8] WW4BEG[9] WW4END[0] WW4END[10]
+ WW4END[11] WW4END[12] WW4END[13] WW4END[14] WW4END[15] WW4END[1] WW4END[2] WW4END[3]
+ WW4END[4] WW4END[5] WW4END[6] WW4END[7] WW4END[8] WW4END[9]
X_2106_ _0587_ VPWR _0588_ VGND net1055 net977 sg13g2_o21ai_1
X_3086_ net1210 net1089 Inst_RegFile_ConfigMem.Inst_frame7_bit10.Q VPWR VGND sg13g2_dlhq_1
X_3155_ net1198 net1098 Inst_RegFile_ConfigMem.Inst_frame5_bit15.Q VPWR VGND sg13g2_dlhq_1
X_2037_ net992 Inst_RegFile_32x4.mem\[12\]\[1\] Inst_RegFile_32x4.mem\[13\]\[1\] Inst_RegFile_32x4.mem\[14\]\[1\]
+ Inst_RegFile_32x4.mem\[15\]\[1\] net946 _0525_ VPWR VGND sg13g2_mux4_1
XFILLER_52_18 VPWR VGND sg13g2_fill_2
X_2939_ net1181 net1127 Inst_RegFile_ConfigMem.Inst_frame12_bit23.Q VPWR VGND sg13g2_dlhq_1
Xhold351 Inst_RegFile_32x4.mem\[27\]\[3\] VPWR VGND net849 sg13g2_dlygate4sd3_1
Xhold340 Inst_RegFile_32x4.mem\[21\]\[1\] VPWR VGND net838 sg13g2_dlygate4sd3_1
XFILLER_13_133 VPWR VGND sg13g2_fill_2
XFILLER_5_310 VPWR VGND sg13g2_fill_2
Xrebuffer7 net504 net505 VPWR VGND sg13g2_dlygate4sd1_1
XFILLER_47_8 VPWR VGND sg13g2_decap_8
X_2889__433 VPWR VGND net433 sg13g2_tiehi
X_1606_ net60 net68 Inst_RegFile_ConfigMem.Inst_frame2_bit20.Q _1226_ VPWR VGND sg13g2_mux2_1
X_2896__426 VPWR VGND net426 sg13g2_tiehi
X_3773_ WW4END[12] net361 VPWR VGND sg13g2_buf_1
X_2655_ net78 Inst_RegFile_switch_matrix.JW2BEG1 Inst_RegFile_ConfigMem.Inst_frame0_bit6.Q
+ _1070_ VPWR VGND sg13g2_mux2_1
X_2724_ _1033_ _1105_ _1106_ VPWR VGND sg13g2_nor2_2
X_1537_ VPWR _1159_ Inst_RegFile_ConfigMem.Inst_frame12_bit26.Q VGND sg13g2_inv_1
XFILLER_47_29 VPWR VGND sg13g2_fill_2
X_3207_ net1160 net1109 Inst_RegFile_ConfigMem.Inst_frame3_bit3.Q VPWR VGND sg13g2_dlhq_1
X_2586_ Inst_RegFile_ConfigMem.Inst_frame10_bit0.Q net985 _0338_ Inst_RegFile_switch_matrix.E2BEG1
+ net522 Inst_RegFile_ConfigMem.Inst_frame10_bit1.Q Inst_RegFile_switch_matrix.S1BEG2
+ VPWR VGND sg13g2_mux4_1
XFILLER_35_291 VPWR VGND sg13g2_fill_2
X_3138_ net1164 net1093 Inst_RegFile_ConfigMem.Inst_frame6_bit30.Q VPWR VGND sg13g2_dlhq_1
X_3069_ net1176 net1083 Inst_RegFile_ConfigMem.Inst_frame8_bit25.Q VPWR VGND sg13g2_dlhq_1
X_2440_ net1062 net83 _0901_ VPWR VGND sg13g2_nor2b_1
XFILLER_5_173 VPWR VGND sg13g2_fill_2
X_2371_ _0837_ Inst_RegFile_ConfigMem.Inst_frame3_bit28.Q net988 VPWR VGND sg13g2_nand2_1
X_3756_ W6END[5] net340 VPWR VGND sg13g2_buf_1
Xoutput220 net510 N2BEG[6] VPWR VGND sg13g2_buf_1
Xoutput231 net231 N4BEG[10] VPWR VGND sg13g2_buf_1
Xoutput242 net242 N4BEG[6] VPWR VGND sg13g2_buf_1
Xoutput253 net253 NN4BEG[1] VPWR VGND sg13g2_buf_1
X_2569_ Inst_RegFile_ConfigMem.Inst_frame12_bit22.Q VPWR _1012_ VGND _1011_ Inst_RegFile_ConfigMem.Inst_frame12_bit21.Q
+ sg13g2_o21ai_1
Xoutput286 net286 S4BEG[13] VPWR VGND sg13g2_buf_1
Xoutput275 net275 S2BEGb[1] VPWR VGND sg13g2_buf_1
Xoutput264 Inst_RegFile_switch_matrix.S1BEG2 S1BEG[2] VPWR VGND sg13g2_buf_1
X_2638_ _1056_ Inst_RegFile_ConfigMem.Inst_frame8_bit29.Q net65 VPWR VGND sg13g2_nand2b_1
X_2707_ net950 net820 _1099_ _0025_ VPWR VGND sg13g2_mux2_1
X_3687_ net511 net269 VPWR VGND sg13g2_buf_1
Xoutput297 net297 S4BEG[9] VPWR VGND sg13g2_buf_1
XFILLER_23_75 VPWR VGND sg13g2_fill_1
XFILLER_11_456 VPWR VGND sg13g2_fill_2
X_2886__436 VPWR VGND net436 sg13g2_tiehi
XFILLER_0_46 VPWR VGND sg13g2_fill_1
X_3610_ net1120 net202 VPWR VGND sg13g2_buf_1
X_1871_ _0365_ VPWR _0366_ VGND _0358_ _0361_ sg13g2_o21ai_1
XFILLER_9_22 VPWR VGND sg13g2_fill_1
X_1940_ VPWR _0432_ _0431_ VGND sg13g2_inv_1
X_2893__429 VPWR VGND net429 sg13g2_tiehi
X_3541_ net14 net123 VPWR VGND sg13g2_buf_1
X_2423_ net999 net1060 _0885_ _0886_ VPWR VGND sg13g2_a21o_1
X_2285_ net718 net970 net1059 _0756_ VPWR VGND sg13g2_mux2_1
X_2354_ VGND VPWR net1046 net999 _0821_ _0820_ sg13g2_a21oi_1
X_3739_ Inst_RegFile_switch_matrix.JW2BEG2 net321 VPWR VGND sg13g2_buf_1
XFILLER_20_231 VPWR VGND sg13g2_decap_4
XFILLER_20_264 VPWR VGND sg13g2_fill_2
XFILLER_47_117 VPWR VGND sg13g2_fill_2
XFILLER_43_301 VPWR VGND sg13g2_decap_4
XFILLER_28_364 VPWR VGND sg13g2_fill_1
XFILLER_7_257 VPWR VGND sg13g2_fill_2
Xfanout1220 net1220 net2 VPWR VGND sg13g2_buf_16
X_2070_ _0556_ _0553_ _0555_ _0551_ _0460_ VPWR VGND sg13g2_a22oi_1
X_2972_ net1179 net1132 Inst_RegFile_ConfigMem.Inst_frame11_bit24.Q VPWR VGND sg13g2_dlhq_1
XFILLER_22_529 VPWR VGND sg13g2_fill_2
X_1854_ VGND VPWR _0349_ _1135_ _0348_ _0343_ _0350_ _0345_ sg13g2_a221oi_1
X_1923_ VGND VPWR net1038 _1166_ _0416_ Inst_RegFile_ConfigMem.Inst_frame1_bit17.Q
+ sg13g2_a21oi_1
X_1785_ VGND VPWR Inst_RegFile_32x4.AD_comb\[1\] _0270_ _0286_ sg13g2_or2_1
X_2406_ net1051 net1070 net1017 net978 net719 Inst_RegFile_ConfigMem.Inst_frame4_bit29.Q
+ _0870_ VPWR VGND sg13g2_mux4_1
X_3386_ UserCLK net494 _0122_ _3386_/Q_N Inst_RegFile_32x4.mem\[11\]\[2\] VPWR VGND
+ sg13g2_dfrbp_1
X_2337_ VGND VPWR _1149_ _0804_ _0805_ _1150_ sg13g2_a21oi_1
XFILLER_57_415 VPWR VGND sg13g2_decap_8
X_2199_ _0674_ _0675_ Inst_RegFile_ConfigMem.Inst_frame2_bit10.Q _0676_ VPWR VGND
+ sg13g2_mux2_1
X_2268_ VGND VPWR _0740_ _0739_ Inst_RegFile_ConfigMem.Inst_frame3_bit6.Q sg13g2_or2_1
XFILLER_56_470 VPWR VGND sg13g2_decap_8
X_1570_ _1191_ net1030 net1048 VPWR VGND sg13g2_nand2b_1
X_3240_ net1158 net1115 Inst_RegFile_ConfigMem.Inst_frame2_bit4.Q VPWR VGND sg13g2_dlhq_1
Xfanout1072 net86 net1072 VPWR VGND sg13g2_buf_1
Xrebuffer17 AD1 net515 VPWR VGND sg13g2_buf_8
X_2122_ Inst_RegFile_ConfigMem.Inst_frame5_bit24.Q net41 net12 net69 net106 Inst_RegFile_ConfigMem.Inst_frame5_bit25.Q
+ _0603_ VPWR VGND sg13g2_mux4_1
Xfanout1061 Inst_RegFile_ConfigMem.Inst_frame9_bit12.Q net1061 VPWR VGND sg13g2_buf_1
XFILLER_39_426 VPWR VGND sg13g2_fill_2
Xfanout1094 net1097 net1094 VPWR VGND sg13g2_buf_1
Xrebuffer39 net538 net537 VPWR VGND sg13g2_dlygate4sd1_1
X_2053_ net990 Inst_RegFile_32x4.mem\[16\]\[3\] Inst_RegFile_32x4.mem\[17\]\[3\] Inst_RegFile_32x4.mem\[18\]\[3\]
+ Inst_RegFile_32x4.mem\[19\]\[3\] net944 _0539_ VPWR VGND sg13g2_mux4_1
Xrebuffer28 net528 net526 VPWR VGND sg13g2_dlygate4sd1_1
X_3171_ net1162 net1098 Inst_RegFile_ConfigMem.Inst_frame5_bit31.Q VPWR VGND sg13g2_dlhq_1
Xfanout1083 net1084 net1083 VPWR VGND sg13g2_buf_1
Xfanout1050 Inst_RegFile_ConfigMem.Inst_frame3_bit4.Q net1050 VPWR VGND sg13g2_buf_1
X_2955_ net26 net1134 Inst_RegFile_ConfigMem.Inst_frame11_bit7.Q VPWR VGND sg13g2_dlhq_1
X_1906_ VGND VPWR Inst_RegFile_ConfigMem.Inst_frame2_bit17.Q _0400_ _0399_ _0398_
+ sg13g2_a21oi_2
X_1768_ VGND VPWR _0269_ _0236_ _0267_ _0263_ _0270_ _0265_ sg13g2_a221oi_1
X_1837_ VGND VPWR net1023 _0331_ _0335_ net955 sg13g2_a21oi_1
X_2886_ UserCLK net436 _0044_ _2886_/Q_N Inst_RegFile_32x4.mem\[23\]\[0\] VPWR VGND
+ sg13g2_dfrbp_1
X_1699_ net1054 net11 net60 net68 net1072 Inst_RegFile_ConfigMem.Inst_frame4_bit21.Q
+ _0205_ VPWR VGND sg13g2_mux4_1
X_3369_ UserCLK net375 _0105_ _3369_/Q_N Inst_RegFile_32x4.mem\[7\]\[1\] VPWR VGND
+ sg13g2_dfrbp_1
XFILLER_1_219 VPWR VGND sg13g2_fill_2
XFILLER_53_484 VPWR VGND sg13g2_fill_2
XFILLER_53_440 VPWR VGND sg13g2_fill_2
XFILLER_15_76 VPWR VGND sg13g2_fill_1
XFILLER_0_285 VPWR VGND sg13g2_fill_2
XFILLER_16_131 VPWR VGND sg13g2_fill_1
XFILLER_16_153 VPWR VGND sg13g2_fill_1
X_2671_ Inst_RegFile_ConfigMem.Inst_frame8_bit17.Q _1080_ _1085_ _1086_ VPWR VGND
+ sg13g2_or3_1
X_2740_ net933 net828 _1110_ _0047_ VPWR VGND sg13g2_mux2_1
X_1622_ net9 net24 Inst_RegFile_ConfigMem.Inst_frame2_bit12.Q _0131_ VPWR VGND sg13g2_mux2_1
X_1553_ Inst_RegFile_ConfigMem.Inst_frame3_bit23.Q VPWR _1175_ VGND Inst_RegFile_ConfigMem.Inst_frame3_bit22.Q
+ _1174_ sg13g2_o21ai_1
XFILLER_39_234 VPWR VGND sg13g2_fill_1
X_3223_ net1190 net1111 Inst_RegFile_ConfigMem.Inst_frame3_bit19.Q VPWR VGND sg13g2_dlhq_1
X_2105_ _0587_ net1055 net719 VPWR VGND sg13g2_nand2_1
X_3085_ net1148 net1090 Inst_RegFile_ConfigMem.Inst_frame7_bit9.Q VPWR VGND sg13g2_dlhq_1
XFILLER_35_484 VPWR VGND sg13g2_fill_2
X_2036_ _0524_ _0523_ net1008 VPWR VGND sg13g2_nand2b_1
X_3154_ net1201 net1098 Inst_RegFile_ConfigMem.Inst_frame5_bit14.Q VPWR VGND sg13g2_dlhq_1
X_2938_ net1182 net1130 Inst_RegFile_ConfigMem.Inst_frame12_bit22.Q VPWR VGND sg13g2_dlhq_1
Xhold352 Inst_RegFile_32x4.mem\[25\]\[0\] VPWR VGND net850 sg13g2_dlygate4sd3_1
Xhold341 Inst_RegFile_32x4.mem\[19\]\[2\] VPWR VGND net839 sg13g2_dlygate4sd3_1
Xhold330 Inst_RegFile_32x4.mem\[23\]\[3\] VPWR VGND net828 sg13g2_dlygate4sd3_1
X_2869_ UserCLK net461 _0027_ _2869_/Q_N Inst_RegFile_32x4.mem\[30\]\[3\] VPWR VGND
+ sg13g2_dfrbp_1
XFILLER_45_215 VPWR VGND sg13g2_decap_4
XFILLER_45_259 VPWR VGND sg13g2_fill_2
XFILLER_26_451 VPWR VGND sg13g2_fill_1
Xrebuffer8 AD0 net506 VPWR VGND sg13g2_buf_2
XFILLER_3_79 VPWR VGND sg13g2_fill_2
XFILLER_32_487 VPWR VGND sg13g2_fill_1
XFILLER_32_476 VPWR VGND sg13g2_fill_1
X_3772_ WW4END[11] net360 VPWR VGND sg13g2_buf_1
X_2723_ _1025_ _1020_ _1105_ VPWR VGND _1029_ sg13g2_nand3b_1
XFILLER_59_0 VPWR VGND sg13g2_fill_2
X_1605_ net84 net1072 Inst_RegFile_ConfigMem.Inst_frame2_bit20.Q _1225_ VPWR VGND
+ sg13g2_mux2_1
X_2654_ net961 net805 _1062_ _0002_ VPWR VGND sg13g2_mux2_1
X_1536_ VPWR _1158_ Inst_RegFile_ConfigMem.Inst_frame11_bit14.Q VGND sg13g2_inv_1
X_2585_ Inst_RegFile_ConfigMem.Inst_frame10_bit2.Q net1003 _0486_ Inst_RegFile_switch_matrix.E2BEG2
+ _1016_ Inst_RegFile_ConfigMem.Inst_frame10_bit3.Q Inst_RegFile_switch_matrix.S1BEG3
+ VPWR VGND sg13g2_mux4_1
X_3206_ net1166 net1109 Inst_RegFile_ConfigMem.Inst_frame3_bit2.Q VPWR VGND sg13g2_dlhq_1
X_3137_ net1169 net1096 Inst_RegFile_ConfigMem.Inst_frame6_bit29.Q VPWR VGND sg13g2_dlhq_1
XFILLER_42_218 VPWR VGND sg13g2_decap_4
XFILLER_35_270 VPWR VGND sg13g2_decap_8
X_2019_ VGND VPWR _0508_ _0491_ _0506_ _0502_ _0509_ _0504_ sg13g2_a221oi_1
XFILLER_23_465 VPWR VGND sg13g2_fill_2
X_3068_ net1178 net1083 Inst_RegFile_ConfigMem.Inst_frame8_bit24.Q VPWR VGND sg13g2_dlhq_1
XFILLER_58_395 VPWR VGND sg13g2_decap_4
XFILLER_37_96 VPWR VGND sg13g2_fill_2
XFILLER_14_498 VPWR VGND sg13g2_fill_2
XFILLER_52_7 VPWR VGND sg13g2_decap_8
X_2370_ Inst_RegFile_ConfigMem.Inst_frame3_bit28.Q net1072 net1019 AD1 net967 Inst_RegFile_ConfigMem.Inst_frame3_bit29.Q
+ _0836_ VPWR VGND sg13g2_mux4_1
X_3686_ Inst_RegFile_switch_matrix.JS2BEG2 net268 VPWR VGND sg13g2_buf_2
X_3755_ W6END[4] net339 VPWR VGND sg13g2_buf_1
X_2706_ net937 net775 _1099_ _0024_ VPWR VGND sg13g2_mux2_1
Xoutput254 net254 NN4BEG[2] VPWR VGND sg13g2_buf_1
Xoutput210 net210 N1BEG[0] VPWR VGND sg13g2_buf_1
X_1519_ VPWR _1141_ Inst_RegFile_ConfigMem.Inst_frame3_bit22.Q VGND sg13g2_inv_1
Xoutput232 net232 N4BEG[11] VPWR VGND sg13g2_buf_1
Xoutput221 net221 N2BEG[7] VPWR VGND sg13g2_buf_1
Xoutput243 net243 N4BEG[7] VPWR VGND sg13g2_buf_1
X_2568_ VGND VPWR _1010_ _1011_ _0911_ Inst_RegFile_ConfigMem.Inst_frame12_bit20.Q
+ sg13g2_a21oi_2
X_2499_ Inst_RegFile_ConfigMem.Inst_frame10_bit14.Q VPWR _0952_ VGND _0951_ Inst_RegFile_ConfigMem.Inst_frame10_bit13.Q
+ sg13g2_o21ai_1
Xoutput265 Inst_RegFile_switch_matrix.S1BEG3 S1BEG[3] VPWR VGND sg13g2_buf_1
Xoutput276 net276 S2BEGb[2] VPWR VGND sg13g2_buf_1
Xoutput298 net298 SS4BEG[0] VPWR VGND sg13g2_buf_1
Xoutput287 net287 S4BEG[14] VPWR VGND sg13g2_buf_1
X_2637_ VGND VPWR _1054_ _1055_ _1053_ _1163_ sg13g2_a21oi_2
XFILLER_23_251 VPWR VGND sg13g2_fill_2
XFILLER_2_177 VPWR VGND sg13g2_fill_2
XFILLER_46_310 VPWR VGND sg13g2_fill_1
X_1870_ _0364_ Inst_RegFile_ConfigMem.Inst_frame8_bit2.Q _0365_ VPWR VGND sg13g2_nor2b_1
X_3540_ net13 net122 VPWR VGND sg13g2_buf_1
XFILLER_14_284 VPWR VGND sg13g2_fill_1
XFILLER_36_2 VPWR VGND sg13g2_fill_1
X_2353_ Inst_RegFile_ConfigMem.Inst_frame2_bit1.Q VPWR _0820_ VGND net1046 net984
+ sg13g2_o21ai_1
X_2422_ Inst_RegFile_ConfigMem.Inst_frame4_bit1.Q VPWR _0885_ VGND net1060 net984
+ sg13g2_o21ai_1
XFILLER_56_129 VPWR VGND sg13g2_fill_1
X_2284_ _0746_ VPWR Inst_RegFile_switch_matrix.E2BEG1 VGND Inst_RegFile_ConfigMem.Inst_frame3_bit7.Q
+ _0755_ sg13g2_o21ai_1
XFILLER_52_302 VPWR VGND sg13g2_decap_4
X_1999_ VGND VPWR net64 Inst_RegFile_ConfigMem.Inst_frame8_bit7.Q _0489_ _0488_ sg13g2_a21oi_1
X_3669_ NN4END[9] net257 VPWR VGND sg13g2_buf_1
XFILLER_4_409 VPWR VGND sg13g2_fill_1
X_3738_ Inst_RegFile_switch_matrix.JW2BEG1 net320 VPWR VGND sg13g2_buf_1
XFILLER_55_195 VPWR VGND sg13g2_fill_1
XFILLER_43_346 VPWR VGND sg13g2_fill_1
XFILLER_34_20 VPWR VGND sg13g2_fill_2
XFILLER_11_287 VPWR VGND sg13g2_fill_1
X_2892__430 VPWR VGND net430 sg13g2_tiehi
Xfanout1221 net1 net1221 VPWR VGND sg13g2_buf_1
Xfanout1210 net1211 net1210 VPWR VGND sg13g2_buf_1
XFILLER_19_354 VPWR VGND sg13g2_fill_1
X_2971_ net1180 net1132 Inst_RegFile_ConfigMem.Inst_frame11_bit23.Q VPWR VGND sg13g2_dlhq_1
X_1922_ VGND VPWR _0415_ net1038 net109 sg13g2_or2_1
X_1853_ VGND VPWR _1134_ _0349_ _0346_ _1133_ sg13g2_a21oi_2
X_1784_ VGND VPWR net969 _0235_ _0285_ _0275_ _0286_ _0277_ sg13g2_a221oi_1
X_2405_ VGND VPWR _0868_ _0869_ Inst_RegFile_ConfigMem.Inst_frame4_bit29.Q _0865_
+ sg13g2_a21oi_2
X_2336_ net972 net1032 net1042 _0804_ VPWR VGND sg13g2_mux2_1
X_3385_ UserCLK net495 _0121_ _3385_/Q_N Inst_RegFile_32x4.mem\[11\]\[1\] VPWR VGND
+ sg13g2_dfrbp_1
XFILLER_41_0 VPWR VGND sg13g2_decap_8
X_2198_ net1044 net1215 net65 net81 net92 Inst_RegFile_ConfigMem.Inst_frame2_bit9.Q
+ _0675_ VPWR VGND sg13g2_mux4_1
XFILLER_37_173 VPWR VGND sg13g2_decap_4
X_2267_ net1050 net1066 net1018 net504 net973 Inst_RegFile_ConfigMem.Inst_frame3_bit5.Q
+ _0739_ VPWR VGND sg13g2_mux4_1
XFILLER_45_63 VPWR VGND sg13g2_fill_2
Xfanout1040 Inst_RegFile_ConfigMem.Inst_frame1_bit4.Q net1040 VPWR VGND sg13g2_buf_1
X_3170_ net1164 net1098 Inst_RegFile_ConfigMem.Inst_frame5_bit30.Q VPWR VGND sg13g2_dlhq_1
Xfanout1051 Inst_RegFile_ConfigMem.Inst_frame4_bit28.Q net1051 VPWR VGND sg13g2_buf_1
X_2121_ VGND VPWR _0601_ _0602_ _0598_ Inst_RegFile_ConfigMem.Inst_frame0_bit25.Q
+ sg13g2_a21oi_2
Xfanout1073 net33 net1073 VPWR VGND sg13g2_buf_1
Xfanout1095 net1096 net1095 VPWR VGND sg13g2_buf_1
Xfanout1062 Inst_RegFile_ConfigMem.Inst_frame9_bit12.Q net1062 VPWR VGND sg13g2_buf_1
Xrebuffer18 net537 net516 VPWR VGND sg13g2_buf_2
X_2052_ VGND VPWR net1004 _0537_ _0538_ _0459_ sg13g2_a21oi_1
Xrebuffer29 net529 net527 VPWR VGND sg13g2_dlygate4sd1_1
Xfanout1084 net1085 net1084 VPWR VGND sg13g2_buf_1
X_1905_ _0399_ net972 net1043 VPWR VGND sg13g2_nand2b_1
X_2954_ net25 net1134 Inst_RegFile_ConfigMem.Inst_frame11_bit6.Q VPWR VGND sg13g2_dlhq_1
X_2885_ UserCLK net437 _0043_ _2885_/Q_N Inst_RegFile_32x4.mem\[22\]\[3\] VPWR VGND
+ sg13g2_dfrbp_1
X_1698_ Inst_RegFile_ConfigMem.Inst_frame4_bit23.Q VPWR _0204_ VGND _0203_ _0200_
+ sg13g2_o21ai_1
X_1836_ _0334_ _0333_ net1023 VPWR VGND sg13g2_nand2b_1
X_1767_ VGND VPWR net983 _0268_ _0269_ _0185_ sg13g2_a21oi_1
XFILLER_57_246 VPWR VGND sg13g2_fill_2
X_3299_ net1162 net1123 Inst_RegFile_ConfigMem.Inst_frame1_bit31.Q VPWR VGND sg13g2_dlhq_1
X_3368_ UserCLK net376 _0104_ _3368_/Q_N Inst_RegFile_32x4.mem\[7\]\[0\] VPWR VGND
+ sg13g2_dfrbp_1
X_2319_ VGND VPWR _0788_ net1041 net1065 sg13g2_or2_1
XFILLER_44_485 VPWR VGND sg13g2_fill_1
XFILLER_31_146 VPWR VGND sg13g2_decap_4
X_1552_ Inst_RegFile_ConfigMem.Inst_frame3_bit20.Q net88 net1019 AD1 net967 Inst_RegFile_ConfigMem.Inst_frame3_bit21.Q
+ _1174_ VPWR VGND sg13g2_mux4_1
X_2670_ VGND VPWR Inst_RegFile_ConfigMem.Inst_frame6_bit7.Q _1083_ _1085_ _1084_ sg13g2_a21oi_1
X_1621_ Inst_RegFile_ConfigMem.Inst_frame2_bit15.Q VPWR _0130_ VGND _1237_ _0129_
+ sg13g2_o21ai_1
X_2104_ _0583_ _0585_ Inst_RegFile_ConfigMem.Inst_frame4_bit18.Q _0586_ VPWR VGND
+ sg13g2_nand3_1
X_3222_ net1192 net1111 Inst_RegFile_ConfigMem.Inst_frame3_bit18.Q VPWR VGND sg13g2_dlhq_1
XFILLER_27_408 VPWR VGND sg13g2_fill_1
X_3153_ net1203 net1099 Inst_RegFile_ConfigMem.Inst_frame5_bit13.Q VPWR VGND sg13g2_dlhq_1
XFILLER_50_422 VPWR VGND sg13g2_fill_2
X_2035_ net995 Inst_RegFile_32x4.mem\[8\]\[1\] Inst_RegFile_32x4.mem\[9\]\[1\] Inst_RegFile_32x4.mem\[10\]\[1\]
+ Inst_RegFile_32x4.mem\[11\]\[1\] net947 _0523_ VPWR VGND sg13g2_mux4_1
X_3084_ net1150 net1090 Inst_RegFile_ConfigMem.Inst_frame7_bit8.Q VPWR VGND sg13g2_dlhq_1
X_2937_ net1184 net1127 Inst_RegFile_ConfigMem.Inst_frame12_bit21.Q VPWR VGND sg13g2_dlhq_1
X_2868_ UserCLK net462 _0026_ _2868_/Q_N Inst_RegFile_32x4.mem\[30\]\[2\] VPWR VGND
+ sg13g2_dfrbp_1
X_2799_ net732 net952 _1123_ _0093_ VPWR VGND sg13g2_mux2_1
X_1819_ net921 Inst_RegFile_32x4.mem\[2\]\[3\] Inst_RegFile_32x4.mem\[3\]\[3\] Inst_RegFile_32x4.mem\[0\]\[3\]
+ Inst_RegFile_32x4.mem\[1\]\[3\] net1022 _0317_ VPWR VGND sg13g2_mux4_1
Xhold320 Inst_RegFile_32x4.mem\[16\]\[3\] VPWR VGND net818 sg13g2_dlygate4sd3_1
Xhold353 Inst_RegFile_32x4.mem\[31\]\[3\] VPWR VGND net851 sg13g2_dlygate4sd3_1
Xhold331 Inst_RegFile_32x4.mem\[31\]\[2\] VPWR VGND net829 sg13g2_dlygate4sd3_1
Xhold342 Inst_RegFile_32x4.mem\[22\]\[2\] VPWR VGND net840 sg13g2_dlygate4sd3_1
XFILLER_53_282 VPWR VGND sg13g2_fill_1
XFILLER_26_43 VPWR VGND sg13g2_fill_1
XFILLER_13_135 VPWR VGND sg13g2_fill_1
XFILLER_13_179 VPWR VGND sg13g2_fill_1
Xrebuffer9 Inst_RegFile_switch_matrix.JW2BEG3 net507 VPWR VGND sg13g2_buf_2
XFILLER_21_190 VPWR VGND sg13g2_fill_2
XFILLER_3_58 VPWR VGND sg13g2_decap_8
XFILLER_3_36 VPWR VGND sg13g2_fill_2
XFILLER_17_463 VPWR VGND sg13g2_fill_1
XFILLER_17_474 VPWR VGND sg13g2_fill_2
X_2722_ net741 net934 _1104_ _0035_ VPWR VGND sg13g2_mux2_1
X_3771_ WW4END[10] net359 VPWR VGND sg13g2_buf_1
X_1604_ net1074 net40 Inst_RegFile_ConfigMem.Inst_frame2_bit20.Q _1224_ VPWR VGND
+ sg13g2_mux2_1
X_1535_ VPWR _1157_ Inst_RegFile_ConfigMem.Inst_frame11_bit23.Q VGND sg13g2_inv_1
X_2653_ Inst_RegFile_ConfigMem.Inst_frame8_bit15.Q _0896_ _0919_ _0486_ _1068_ Inst_RegFile_ConfigMem.Inst_frame8_bit14.Q
+ _1069_ VPWR VGND sg13g2_mux4_1
X_2584_ Inst_RegFile_ConfigMem.Inst_frame10_bit5.Q net1214 net79 net64 net1020 Inst_RegFile_ConfigMem.Inst_frame10_bit4.Q
+ Inst_RegFile_switch_matrix.S4BEG0 VPWR VGND sg13g2_mux4_1
X_3205_ net1188 net1109 Inst_RegFile_ConfigMem.Inst_frame3_bit1.Q VPWR VGND sg13g2_dlhq_1
X_3067_ net1180 net1083 Inst_RegFile_ConfigMem.Inst_frame8_bit23.Q VPWR VGND sg13g2_dlhq_1
X_3136_ net1170 net1096 Inst_RegFile_ConfigMem.Inst_frame6_bit28.Q VPWR VGND sg13g2_dlhq_1
X_2018_ VGND VPWR net1005 _0507_ _0508_ net943 sg13g2_a21oi_1
XFILLER_58_374 VPWR VGND sg13g2_decap_8
Xoutput200 net200 FrameStrobe_O[19] VPWR VGND sg13g2_buf_1
X_3754_ W6END[3] net338 VPWR VGND sg13g2_buf_1
X_3685_ Inst_RegFile_switch_matrix.JS2BEG1 net267 VPWR VGND sg13g2_buf_1
X_2636_ Inst_RegFile_ConfigMem.Inst_frame8_bit29.Q _1031_ _1054_ VPWR VGND sg13g2_and2_1
X_2705_ _1099_ _1090_ _1094_ VPWR VGND sg13g2_nand2_2
Xoutput222 net222 N2BEGb[0] VPWR VGND sg13g2_buf_1
Xoutput244 net244 N4BEG[8] VPWR VGND sg13g2_buf_1
Xoutput211 Inst_RegFile_switch_matrix.N1BEG1 N1BEG[1] VPWR VGND sg13g2_buf_1
Xoutput233 net233 N4BEG[12] VPWR VGND sg13g2_buf_1
Xoutput255 net255 NN4BEG[3] VPWR VGND sg13g2_buf_1
X_2567_ Inst_RegFile_ConfigMem.Inst_frame12_bit20.Q net1010 _1010_ VPWR VGND sg13g2_nor2_2
X_2498_ VGND VPWR _0950_ _0951_ _0911_ Inst_RegFile_ConfigMem.Inst_frame10_bit12.Q
+ sg13g2_a21oi_2
X_1518_ VPWR _1140_ Inst_RegFile_ConfigMem.Inst_frame8_bit8.Q VGND sg13g2_inv_1
Xoutput277 net277 S2BEGb[3] VPWR VGND sg13g2_buf_1
Xoutput299 net299 SS4BEG[10] VPWR VGND sg13g2_buf_1
Xoutput266 net266 S2BEG[0] VPWR VGND sg13g2_buf_1
Xoutput288 net288 S4BEG[15] VPWR VGND sg13g2_buf_1
XFILLER_55_388 VPWR VGND sg13g2_decap_8
X_3119_ net1208 net1094 Inst_RegFile_ConfigMem.Inst_frame6_bit11.Q VPWR VGND sg13g2_dlhq_1
XFILLER_15_208 VPWR VGND sg13g2_fill_2
XFILLER_11_458 VPWR VGND sg13g2_fill_1
XFILLER_46_333 VPWR VGND sg13g2_decap_4
XFILLER_34_528 VPWR VGND sg13g2_fill_2
XFILLER_10_491 VPWR VGND sg13g2_fill_1
X_2352_ _0812_ VPWR Inst_RegFile_switch_matrix.JS2BEG7 VGND Inst_RegFile_ConfigMem.Inst_frame2_bit31.Q
+ _0819_ sg13g2_o21ai_1
X_2283_ Inst_RegFile_ConfigMem.Inst_frame3_bit5.Q _0754_ _0752_ _0748_ _0750_ Inst_RegFile_ConfigMem.Inst_frame3_bit6.Q
+ _0755_ VPWR VGND sg13g2_mux4_1
X_2421_ _0883_ VPWR _0884_ VGND net1060 net1029 sg13g2_o21ai_1
XFILLER_37_344 VPWR VGND sg13g2_fill_2
XFILLER_37_311 VPWR VGND sg13g2_fill_2
XFILLER_37_300 VPWR VGND sg13g2_decap_8
XFILLER_20_266 VPWR VGND sg13g2_fill_1
X_3599_ net1181 net173 VPWR VGND sg13g2_buf_1