* NGSPICE file created from N_IO.ext - technology: ihp-sg13g2

* Black-box entry subcircuit for sg13g2_buf_1 abstract view
.subckt sg13g2_buf_1 A X VDD VSS
.ends

* Black-box entry subcircuit for sg13g2_fill_1 abstract view
.subckt sg13g2_fill_1 VDD VSS
.ends

* Black-box entry subcircuit for sg13g2_mux4_1 abstract view
.subckt sg13g2_mux4_1 S0 A0 A1 A2 A3 S1 X VDD VSS
.ends

* Black-box entry subcircuit for sg13g2_dlhq_1 abstract view
.subckt sg13g2_dlhq_1 D GATE Q VDD VSS
.ends

* Black-box entry subcircuit for sg13g2_fill_2 abstract view
.subckt sg13g2_fill_2 VDD VSS
.ends

* Black-box entry subcircuit for sg13g2_o21ai_1 abstract view
.subckt sg13g2_o21ai_1 B1 VDD Y VSS A1 A2
.ends

* Black-box entry subcircuit for sg13g2_decap_8 abstract view
.subckt sg13g2_decap_8 VDD VSS
.ends

* Black-box entry subcircuit for sg13g2_nor2b_1 abstract view
.subckt sg13g2_nor2b_1 A B_N Y VDD VSS
.ends

* Black-box entry subcircuit for sg13g2_decap_4 abstract view
.subckt sg13g2_decap_4 VDD VSS
.ends

* Black-box entry subcircuit for sg13g2_a21oi_1 abstract view
.subckt sg13g2_a21oi_1 VSS VDD A1 A2 Y B1
.ends

* Black-box entry subcircuit for sg13g2_dfrbp_1 abstract view
.subckt sg13g2_dfrbp_1 CLK RESET_B D Q_N Q VDD VSS
.ends

* Black-box entry subcircuit for sg13g2_nand2b_1 abstract view
.subckt sg13g2_nand2b_1 Y B A_N VDD VSS
.ends

* Black-box entry subcircuit for sg13g2_tiehi abstract view
.subckt sg13g2_tiehi VDD VSS L_HI
.ends

* Black-box entry subcircuit for sg13g2_nand4_1 abstract view
.subckt sg13g2_nand4_1 B C A Y VDD VSS D
.ends

* Black-box entry subcircuit for sg13g2_nand2_1 abstract view
.subckt sg13g2_nand2_1 Y A B VDD VSS
.ends

* Black-box entry subcircuit for sg13g2_nand3b_1 abstract view
.subckt sg13g2_nand3b_1 B C Y VDD VSS A_N
.ends

* Black-box entry subcircuit for sg13g2_a221oi_1 abstract view
.subckt sg13g2_a221oi_1 VSS VDD B2 C1 B1 A1 Y A2
.ends

* Black-box entry subcircuit for sg13g2_nand3_1 abstract view
.subckt sg13g2_nand3_1 B C A Y VDD VSS
.ends

* Black-box entry subcircuit for sg13g2_or2_1 abstract view
.subckt sg13g2_or2_1 VSS VDD X B A
.ends

* Black-box entry subcircuit for sg13g2_mux2_1 abstract view
.subckt sg13g2_mux2_1 A0 A1 S X VDD VSS
.ends

* Black-box entry subcircuit for sg13g2_inv_1 abstract view
.subckt sg13g2_inv_1 VDD Y A VSS
.ends

.subckt N_IO A_I_top A_O_top A_T_top A_config_C_bit0 A_config_C_bit1 A_config_C_bit2
+ A_config_C_bit3 B_I_top B_O_top B_T_top B_config_C_bit0 B_config_C_bit1 B_config_C_bit2
+ B_config_C_bit3 Ci FrameData[0] FrameData[10] FrameData[11] FrameData[12] FrameData[13]
+ FrameData[14] FrameData[15] FrameData[16] FrameData[17] FrameData[18] FrameData[19]
+ FrameData[1] FrameData[20] FrameData[21] FrameData[22] FrameData[23] FrameData[24]
+ FrameData[25] FrameData[26] FrameData[27] FrameData[28] FrameData[29] FrameData[2]
+ FrameData[30] FrameData[31] FrameData[3] FrameData[4] FrameData[5] FrameData[6]
+ FrameData[7] FrameData[8] FrameData[9] FrameData_O[0] FrameData_O[10] FrameData_O[11]
+ FrameData_O[12] FrameData_O[13] FrameData_O[14] FrameData_O[15] FrameData_O[16]
+ FrameData_O[17] FrameData_O[18] FrameData_O[19] FrameData_O[1] FrameData_O[20] FrameData_O[21]
+ FrameData_O[22] FrameData_O[23] FrameData_O[24] FrameData_O[25] FrameData_O[26]
+ FrameData_O[27] FrameData_O[28] FrameData_O[29] FrameData_O[2] FrameData_O[30] FrameData_O[31]
+ FrameData_O[3] FrameData_O[4] FrameData_O[5] FrameData_O[6] FrameData_O[7] FrameData_O[8]
+ FrameData_O[9] FrameStrobe[0] FrameStrobe[10] FrameStrobe[11] FrameStrobe[12] FrameStrobe[13]
+ FrameStrobe[14] FrameStrobe[15] FrameStrobe[16] FrameStrobe[17] FrameStrobe[18]
+ FrameStrobe[19] FrameStrobe[1] FrameStrobe[2] FrameStrobe[3] FrameStrobe[4] FrameStrobe[5]
+ FrameStrobe[6] FrameStrobe[7] FrameStrobe[8] FrameStrobe[9] FrameStrobe_O[0] FrameStrobe_O[10]
+ FrameStrobe_O[11] FrameStrobe_O[12] FrameStrobe_O[13] FrameStrobe_O[14] FrameStrobe_O[15]
+ FrameStrobe_O[16] FrameStrobe_O[17] FrameStrobe_O[18] FrameStrobe_O[19] FrameStrobe_O[1]
+ FrameStrobe_O[2] FrameStrobe_O[3] FrameStrobe_O[4] FrameStrobe_O[5] FrameStrobe_O[6]
+ FrameStrobe_O[7] FrameStrobe_O[8] FrameStrobe_O[9] N1END[0] N1END[1] N1END[2] N1END[3]
+ N2END[0] N2END[1] N2END[2] N2END[3] N2END[4] N2END[5] N2END[6] N2END[7] N2MID[0]
+ N2MID[1] N2MID[2] N2MID[3] N2MID[4] N2MID[5] N2MID[6] N2MID[7] N4END[0] N4END[10]
+ N4END[11] N4END[12] N4END[13] N4END[14] N4END[15] N4END[1] N4END[2] N4END[3] N4END[4]
+ N4END[5] N4END[6] N4END[7] N4END[8] N4END[9] NN4END[0] NN4END[10] NN4END[11] NN4END[12]
+ NN4END[13] NN4END[14] NN4END[15] NN4END[1] NN4END[2] NN4END[3] NN4END[4] NN4END[5]
+ NN4END[6] NN4END[7] NN4END[8] NN4END[9] S1BEG[0] S1BEG[1] S1BEG[2] S1BEG[3] S2BEG[0]
+ S2BEG[1] S2BEG[2] S2BEG[3] S2BEG[4] S2BEG[5] S2BEG[6] S2BEG[7] S2BEGb[0] S2BEGb[1]
+ S2BEGb[2] S2BEGb[3] S2BEGb[4] S2BEGb[5] S2BEGb[6] S2BEGb[7] S4BEG[0] S4BEG[10] S4BEG[11]
+ S4BEG[12] S4BEG[13] S4BEG[14] S4BEG[15] S4BEG[1] S4BEG[2] S4BEG[3] S4BEG[4] S4BEG[5]
+ S4BEG[6] S4BEG[7] S4BEG[8] S4BEG[9] SS4BEG[0] SS4BEG[10] SS4BEG[11] SS4BEG[12] SS4BEG[13]
+ SS4BEG[14] SS4BEG[15] SS4BEG[1] SS4BEG[2] SS4BEG[3] SS4BEG[4] SS4BEG[5] SS4BEG[6]
+ SS4BEG[7] SS4BEG[8] SS4BEG[9] UserCLK UserCLKo VGND VPWR
X_294_ net12 net132 VPWR VGND sg13g2_buf_1
X_363_ Inst_N_IO_switch_matrix.S4BEG15 net201 VPWR VGND sg13g2_buf_1
XFILLER_8_192 VPWR VGND sg13g2_fill_1
X_346_ Inst_N_IO_switch_matrix.S2BEGb6 net193 VPWR VGND sg13g2_buf_1
X_277_ net14 net134 VPWR VGND sg13g2_buf_1
XFILLER_7_438 VPWR VGND sg13g2_fill_1
X_131_ Inst_N_IO_ConfigMem.Inst_frame1_bit28.Q net41 net43 net45 net47 Inst_N_IO_ConfigMem.Inst_frame1_bit29.Q
+ Inst_N_IO_switch_matrix.SS4BEG5 VPWR VGND sg13g2_mux4_1
X_062_ Inst_N_IO_ConfigMem.Inst_frame3_bit28.Q net50 net64 net103 net96 Inst_N_IO_ConfigMem.Inst_frame3_bit29.Q
+ Inst_N_IO_switch_matrix.S2BEG5 VPWR VGND sg13g2_mux4_1
X_200_ net19 net79 Inst_N_IO_ConfigMem.Inst_frame2_bit24.Q VPWR VGND sg13g2_dlhq_1
X_329_ Inst_N_IO_switch_matrix.S1BEG1 net176 VPWR VGND sg13g2_buf_1
XFILLER_2_165 VPWR VGND sg13g2_fill_2
XFILLER_7_257 VPWR VGND sg13g2_fill_1
X_114_ Inst_N_IO_ConfigMem.Inst_frame0_bit20.Q VPWR _026_ VGND _024_ _025_ sg13g2_o21ai_1
XFILLER_0_422 VPWR VGND sg13g2_decap_8
XFILLER_6_12 VPWR VGND sg13g2_fill_2
XFILLER_3_282 VPWR VGND sg13g2_fill_2
Xoutput97 net120 B_config_C_bit1 VPWR VGND sg13g2_buf_1
XFILLER_7_8 VPWR VGND sg13g2_fill_2
X_362_ Inst_N_IO_switch_matrix.S4BEG14 net200 VPWR VGND sg13g2_buf_1
X_293_ net11 net131 VPWR VGND sg13g2_buf_1
XFILLER_10_137 VPWR VGND sg13g2_fill_2
X_345_ Inst_N_IO_switch_matrix.S2BEGb5 net192 VPWR VGND sg13g2_buf_1
X_276_ net3 net123 VPWR VGND sg13g2_buf_1
X_130_ Inst_N_IO_ConfigMem.Inst_frame1_bit31.Q net48 net52 net50 net54 Inst_N_IO_ConfigMem.Inst_frame1_bit30.Q
+ Inst_N_IO_switch_matrix.SS4BEG6 VPWR VGND sg13g2_mux4_1
X_061_ Inst_N_IO_ConfigMem.Inst_frame3_bit30.Q net49 net63 net102 net110 Inst_N_IO_ConfigMem.Inst_frame3_bit31.Q
+ Inst_N_IO_switch_matrix.S2BEG6 VPWR VGND sg13g2_mux4_1
XFILLER_9_12 VPWR VGND sg13g2_fill_2
X_259_ net13 net88 Inst_N_IO_ConfigMem.Inst_frame0_bit19.Q VPWR VGND sg13g2_dlhq_1
XFILLER_0_14 VPWR VGND sg13g2_fill_1
X_328_ Inst_N_IO_switch_matrix.S1BEG0 net175 VPWR VGND sg13g2_buf_1
XFILLER_11_232 VPWR VGND sg13g2_fill_2
XFILLER_7_269 VPWR VGND sg13g2_fill_1
XFILLER_7_236 VPWR VGND sg13g2_fill_2
X_113_ Inst_N_IO_ConfigMem.Inst_frame0_bit19.Q VPWR _025_ VGND net46 net70 sg13g2_o21ai_1
Xoutput98 net121 B_config_C_bit2 VPWR VGND sg13g2_buf_1
XFILLER_0_275 VPWR VGND sg13g2_fill_1
XFILLER_8_375 VPWR VGND sg13g2_decap_8
X_292_ net10 net130 VPWR VGND sg13g2_buf_1
X_361_ Inst_N_IO_switch_matrix.S4BEG13 net199 VPWR VGND sg13g2_buf_1
XFILLER_10_105 VPWR VGND sg13g2_fill_1
X_344_ Inst_N_IO_switch_matrix.S2BEGb4 net191 VPWR VGND sg13g2_buf_1
Xoutput200 net223 SS4BEG[6] VPWR VGND sg13g2_buf_1
X_060_ Inst_N_IO_ConfigMem.Inst_frame2_bit0.Q net48 net56 net95 net109 Inst_N_IO_ConfigMem.Inst_frame2_bit1.Q
+ Inst_N_IO_switch_matrix.S2BEG7 VPWR VGND sg13g2_mux4_1
XFILLER_2_167 VPWR VGND sg13g2_fill_1
X_327_ FrameStrobe[19] net165 VPWR VGND sg13g2_buf_1
X_258_ net12 net88 Inst_N_IO_ConfigMem.Inst_frame0_bit18.Q VPWR VGND sg13g2_dlhq_1
X_189_ net7 net77 Inst_N_IO_ConfigMem.Inst_frame2_bit13.Q VPWR VGND sg13g2_dlhq_1
X_112_ net47 net70 _024_ VPWR VGND sg13g2_nor2b_1
XFILLER_3_410 VPWR VGND sg13g2_decap_4
XFILLER_3_432 VPWR VGND sg13g2_decap_8
XFILLER_6_14 VPWR VGND sg13g2_fill_1
XFILLER_3_284 VPWR VGND sg13g2_fill_1
Xoutput88 net111 A_I_top VPWR VGND sg13g2_buf_1
Xoutput99 net122 B_config_C_bit3 VPWR VGND sg13g2_buf_1
X_360_ Inst_N_IO_switch_matrix.S4BEG12 net198 VPWR VGND sg13g2_buf_1
XFILLER_10_309 VPWR VGND sg13g2_fill_2
X_291_ net9 net129 VPWR VGND sg13g2_buf_1
X_343_ Inst_N_IO_switch_matrix.S2BEGb3 net190 VPWR VGND sg13g2_buf_1
XFILLER_5_143 VPWR VGND sg13g2_fill_2
Xoutput201 net224 SS4BEG[7] VPWR VGND sg13g2_buf_1
X_326_ FrameStrobe[18] net164 VPWR VGND sg13g2_buf_1
XFILLER_9_25 VPWR VGND sg13g2_fill_2
Xfanout90 net91 net90 VPWR VGND sg13g2_buf_1
X_188_ net6 net76 Inst_N_IO_ConfigMem.Inst_frame2_bit12.Q VPWR VGND sg13g2_dlhq_1
X_257_ net11 net88 Inst_N_IO_ConfigMem.Inst_frame0_bit17.Q VPWR VGND sg13g2_dlhq_1
XFILLER_9_290 VPWR VGND sg13g2_fill_1
XFILLER_11_234 VPWR VGND sg13g2_fill_1
X_111_ VGND VPWR _021_ _022_ _023_ Inst_N_IO_ConfigMem.Inst_frame0_bit19.Q sg13g2_a21oi_1
X_309_ net82 net166 VPWR VGND sg13g2_buf_1
XFILLER_3_400 VPWR VGND sg13g2_fill_1
XFILLER_0_436 VPWR VGND sg13g2_decap_8
XFILLER_3_241 VPWR VGND sg13g2_fill_2
Xoutput89 net112 A_T_top VPWR VGND sg13g2_buf_1
XFILLER_8_300 VPWR VGND sg13g2_fill_2
X_290_ net8 net128 VPWR VGND sg13g2_buf_1
X_342_ Inst_N_IO_switch_matrix.S2BEGb2 net189 VPWR VGND sg13g2_buf_1
X_273_ UserCLK net229 net2 _273_/Q_N Inst_B_IO_1_bidirectional_frame_config_pass.Q
+ VPWR VGND sg13g2_dfrbp_1
XFILLER_5_8 VPWR VGND sg13g2_fill_2
Xoutput202 net225 SS4BEG[8] VPWR VGND sg13g2_buf_1
X_325_ FrameStrobe[17] net163 VPWR VGND sg13g2_buf_1
X_187_ net5 net78 Inst_N_IO_ConfigMem.Inst_frame2_bit11.Q VPWR VGND sg13g2_dlhq_1
Xfanout91 FrameStrobe[0] net91 VPWR VGND sg13g2_buf_1
X_256_ net10 net89 Inst_N_IO_ConfigMem.Inst_frame0_bit16.Q VPWR VGND sg13g2_dlhq_1
Xfanout80 net81 net80 VPWR VGND sg13g2_buf_1
XFILLER_11_213 VPWR VGND sg13g2_fill_2
X_110_ _022_ net44 net70 VPWR VGND sg13g2_nand2b_1
X_308_ FrameStrobe[0] net155 VPWR VGND sg13g2_buf_1
XFILLER_6_250 VPWR VGND sg13g2_decap_4
X_239_ net27 net82 Inst_N_IO_ConfigMem.Inst_frame1_bit31.Q VPWR VGND sg13g2_dlhq_1
XFILLER_0_415 VPWR VGND sg13g2_decap_8
XFILLER_10_80 VPWR VGND sg13g2_fill_1
XFILLER_3_264 VPWR VGND sg13g2_fill_1
XFILLER_5_304 VPWR VGND sg13g2_fill_1
XFILLER_8_197 VPWR VGND sg13g2_fill_2
X_341_ Inst_N_IO_switch_matrix.S2BEGb1 net188 VPWR VGND sg13g2_buf_1
X_272_ UserCLK net228 net1 _272_/Q_N Inst_A_IO_1_bidirectional_frame_config_pass.Q
+ VPWR VGND sg13g2_dfrbp_1
Xoutput203 net226 SS4BEG[9] VPWR VGND sg13g2_buf_1
X_186_ net4 net78 Inst_N_IO_ConfigMem.Inst_frame2_bit10.Q VPWR VGND sg13g2_dlhq_1
XFILLER_9_27 VPWR VGND sg13g2_fill_1
X_324_ FrameStrobe[16] net162 VPWR VGND sg13g2_buf_1
X_255_ net9 net88 Inst_N_IO_ConfigMem.Inst_frame0_bit15.Q VPWR VGND sg13g2_dlhq_1
XFILLER_6_443 VPWR VGND sg13g2_decap_4
XFILLER_6_410 VPWR VGND sg13g2_fill_1
Xfanout81 FrameStrobe[2] net81 VPWR VGND sg13g2_buf_1
Xfanout70 Inst_N_IO_ConfigMem.Inst_frame0_bit18.Q net70 VPWR VGND sg13g2_buf_1
XFILLER_3_446 VPWR VGND sg13g2_fill_1
X_238_ net26 net82 Inst_N_IO_ConfigMem.Inst_frame1_bit30.Q VPWR VGND sg13g2_dlhq_1
X_307_ net27 net147 VPWR VGND sg13g2_buf_1
X_169_ net20 net73 Inst_N_IO_ConfigMem.Inst_frame3_bit25.Q VPWR VGND sg13g2_dlhq_1
XFILLER_3_232 VPWR VGND sg13g2_fill_1
XFILLER_3_243 VPWR VGND sg13g2_fill_1
XFILLER_7_60 VPWR VGND sg13g2_fill_1
XFILLER_5_338 VPWR VGND sg13g2_fill_1
XFILLER_8_132 VPWR VGND sg13g2_fill_1
XFILLER_8_121 VPWR VGND sg13g2_fill_2
X_340_ Inst_N_IO_switch_matrix.S2BEGb0 net187 VPWR VGND sg13g2_buf_1
X_271_ net27 net87 Inst_N_IO_ConfigMem.Inst_frame0_bit31.Q VPWR VGND sg13g2_dlhq_1
XFILLER_9_441 VPWR VGND sg13g2_fill_2
Xoutput204 net227 UserCLKo VPWR VGND sg13g2_buf_1
X_323_ FrameStrobe[15] net161 VPWR VGND sg13g2_buf_1
Xfanout82 net35 net82 VPWR VGND sg13g2_buf_1
Xfanout71 net74 net71 VPWR VGND sg13g2_buf_1
XFILLER_6_422 VPWR VGND sg13g2_decap_8
X_185_ net34 net80 Inst_N_IO_ConfigMem.Inst_frame2_bit9.Q VPWR VGND sg13g2_dlhq_1
X_254_ net8 net89 Inst_N_IO_ConfigMem.Inst_frame0_bit14.Q VPWR VGND sg13g2_dlhq_1
XFILLER_3_425 VPWR VGND sg13g2_decap_8
X_306_ net26 net146 VPWR VGND sg13g2_buf_1
X_237_ net24 net82 Inst_N_IO_ConfigMem.Inst_frame1_bit29.Q VPWR VGND sg13g2_dlhq_1
X_168_ net19 net72 Inst_N_IO_ConfigMem.Inst_frame3_bit24.Q VPWR VGND sg13g2_dlhq_1
X_099_ Inst_N_IO_ConfigMem.Inst_frame0_bit28.Q VPWR _012_ VGND _008_ _011_ sg13g2_o21ai_1
XFILLER_10_71 VPWR VGND sg13g2_fill_1
X_270_ net26 net87 Inst_N_IO_ConfigMem.Inst_frame0_bit30.Q VPWR VGND sg13g2_dlhq_1
XFILLER_9_431 VPWR VGND sg13g2_fill_2
XFILLER_9_18 VPWR VGND sg13g2_decap_8
X_322_ FrameStrobe[14] net160 VPWR VGND sg13g2_buf_1
XFILLER_3_8 VPWR VGND sg13g2_fill_2
X_253_ net7 net91 Inst_N_IO_ConfigMem.Inst_frame0_bit13.Q VPWR VGND sg13g2_dlhq_1
Xfanout72 net73 net72 VPWR VGND sg13g2_buf_1
X_184_ net33 net79 Inst_N_IO_ConfigMem.Inst_frame2_bit8.Q VPWR VGND sg13g2_dlhq_1
Xfanout83 net86 net83 VPWR VGND sg13g2_buf_1
X_167_ net18 net75 Inst_N_IO_ConfigMem.Inst_frame3_bit23.Q VPWR VGND sg13g2_dlhq_1
X_305_ net24 net144 VPWR VGND sg13g2_buf_1
X_098_ Inst_N_IO_ConfigMem.Inst_frame0_bit27.Q VPWR _011_ VGND _009_ _010_ sg13g2_o21ai_1
X_236_ net23 net82 Inst_N_IO_ConfigMem.Inst_frame1_bit28.Q VPWR VGND sg13g2_dlhq_1
XFILLER_0_429 VPWR VGND sg13g2_decap_8
XFILLER_3_201 VPWR VGND sg13g2_fill_2
X_219_ net5 net84 Inst_N_IO_ConfigMem.Inst_frame1_bit11.Q VPWR VGND sg13g2_dlhq_1
XFILLER_8_348 VPWR VGND sg13g2_fill_2
Xfanout84 net86 net84 VPWR VGND sg13g2_buf_1
X_321_ FrameStrobe[13] net159 VPWR VGND sg13g2_buf_1
XFILLER_10_431 VPWR VGND sg13g2_fill_1
X_183_ net32 net79 Inst_N_IO_ConfigMem.Inst_frame2_bit7.Q VPWR VGND sg13g2_dlhq_1
Xfanout73 net74 net73 VPWR VGND sg13g2_buf_1
X_252_ net6 net91 Inst_N_IO_ConfigMem.Inst_frame0_bit12.Q VPWR VGND sg13g2_dlhq_1
X_235_ net22 net82 Inst_N_IO_ConfigMem.Inst_frame1_bit27.Q VPWR VGND sg13g2_dlhq_1
XFILLER_3_405 VPWR VGND sg13g2_fill_1
X_304_ net23 net143 VPWR VGND sg13g2_buf_1
X_166_ net17 net73 Inst_N_IO_ConfigMem.Inst_frame3_bit22.Q VPWR VGND sg13g2_dlhq_1
XFILLER_6_254 VPWR VGND sg13g2_fill_1
XFILLER_6_243 VPWR VGND sg13g2_decap_8
X_097_ Inst_N_IO_ConfigMem.Inst_frame0_bit26.Q VPWR _010_ VGND net69 net46 sg13g2_o21ai_1
XFILLER_0_408 VPWR VGND sg13g2_decap_8
X_218_ net4 net84 Inst_N_IO_ConfigMem.Inst_frame1_bit10.Q VPWR VGND sg13g2_dlhq_1
X_149_ Inst_N_IO_ConfigMem.Inst_frame2_bit25.Q net57 net100 net96 net2 Inst_N_IO_ConfigMem.Inst_frame2_bit24.Q
+ Inst_N_IO_switch_matrix.S4BEG3 VPWR VGND sg13g2_mux4_1
XFILLER_4_374 VPWR VGND sg13g2_fill_2
XFILLER_1_366 VPWR VGND sg13g2_fill_1
XFILLER_1_322 VPWR VGND sg13g2_fill_2
XFILLER_1_300 VPWR VGND sg13g2_fill_1
XFILLER_1_388 VPWR VGND sg13g2_fill_2
X_251_ net5 net90 Inst_N_IO_ConfigMem.Inst_frame0_bit11.Q VPWR VGND sg13g2_dlhq_1
X_320_ FrameStrobe[12] net158 VPWR VGND sg13g2_buf_1
X_182_ net31 net79 Inst_N_IO_ConfigMem.Inst_frame2_bit6.Q VPWR VGND sg13g2_dlhq_1
Xfanout74 net75 net74 VPWR VGND sg13g2_buf_1
XFILLER_6_436 VPWR VGND sg13g2_decap_8
Xfanout85 net86 net85 VPWR VGND sg13g2_buf_1
X_272__205 VPWR VGND net228 sg13g2_tiehi
XFILLER_3_439 VPWR VGND sg13g2_decap_8
X_303_ net22 net142 VPWR VGND sg13g2_buf_1
X_234_ net21 net82 Inst_N_IO_ConfigMem.Inst_frame1_bit26.Q VPWR VGND sg13g2_dlhq_1
XFILLER_6_299 VPWR VGND sg13g2_fill_2
X_165_ net16 net71 Inst_N_IO_ConfigMem.Inst_frame3_bit21.Q VPWR VGND sg13g2_dlhq_1
XFILLER_2_450 VPWR VGND sg13g2_fill_1
X_096_ net47 Inst_N_IO_ConfigMem.Inst_frame0_bit25.Q _009_ VPWR VGND sg13g2_nor2b_1
XFILLER_10_85 VPWR VGND sg13g2_fill_2
XFILLER_10_30 VPWR VGND sg13g2_fill_2
X_148_ Inst_N_IO_ConfigMem.Inst_frame2_bit27.Q net38 net108 net92 net1 Inst_N_IO_ConfigMem.Inst_frame2_bit26.Q
+ Inst_N_IO_switch_matrix.S4BEG4 VPWR VGND sg13g2_mux4_1
X_217_ net34 net85 Inst_N_IO_ConfigMem.Inst_frame1_bit9.Q VPWR VGND sg13g2_dlhq_1
X_079_ _036_ _037_ Inst_N_IO_ConfigMem.Inst_frame0_bit22.Q _039_ VPWR VGND _038_ sg13g2_nand4_1
XFILLER_7_383 VPWR VGND sg13g2_fill_1
XFILLER_8_103 VPWR VGND sg13g2_fill_2
X_250_ net4 net90 Inst_N_IO_ConfigMem.Inst_frame0_bit10.Q VPWR VGND sg13g2_dlhq_1
Xfanout75 FrameStrobe[3] net75 VPWR VGND sg13g2_buf_1
XFILLER_6_415 VPWR VGND sg13g2_decap_8
Xfanout86 net35 net86 VPWR VGND sg13g2_buf_1
X_181_ net30 net76 Inst_N_IO_ConfigMem.Inst_frame2_bit5.Q VPWR VGND sg13g2_dlhq_1
XFILLER_9_286 VPWR VGND sg13g2_decap_4
XFILLER_9_242 VPWR VGND sg13g2_decap_8
X_379_ Inst_N_IO_switch_matrix.SS4BEG15 net217 VPWR VGND sg13g2_buf_1
XFILLER_1_8 VPWR VGND sg13g2_fill_1
XFILLER_3_418 VPWR VGND sg13g2_decap_8
X_302_ net21 net141 VPWR VGND sg13g2_buf_1
X_164_ net15 net71 Inst_N_IO_ConfigMem.Inst_frame3_bit20.Q VPWR VGND sg13g2_dlhq_1
X_095_ VGND VPWR _006_ _007_ _008_ Inst_N_IO_ConfigMem.Inst_frame0_bit26.Q sg13g2_a21oi_1
X_233_ net20 net85 Inst_N_IO_ConfigMem.Inst_frame1_bit25.Q VPWR VGND sg13g2_dlhq_1
X_078_ _038_ net44 Inst_N_IO_ConfigMem.Inst_frame0_bit24.Q VPWR VGND sg13g2_nand2_1
X_216_ net33 net85 Inst_N_IO_ConfigMem.Inst_frame1_bit8.Q VPWR VGND sg13g2_dlhq_1
X_147_ Inst_N_IO_ConfigMem.Inst_frame2_bit29.Q net39 net107 net68 net2 Inst_N_IO_ConfigMem.Inst_frame2_bit28.Q
+ Inst_N_IO_switch_matrix.S4BEG5 VPWR VGND sg13g2_mux4_1
XFILLER_7_362 VPWR VGND sg13g2_decap_4
XFILLER_0_390 VPWR VGND sg13g2_fill_1
XFILLER_4_22 VPWR VGND sg13g2_decap_4
XFILLER_4_162 VPWR VGND sg13g2_fill_2
XFILLER_10_456 VPWR VGND sg13g2_fill_2
Xfanout76 net78 net76 VPWR VGND sg13g2_buf_1
X_180_ net29 net76 Inst_N_IO_ConfigMem.Inst_frame2_bit4.Q VPWR VGND sg13g2_dlhq_1
Xfanout87 net89 net87 VPWR VGND sg13g2_buf_1
X_378_ Inst_N_IO_switch_matrix.SS4BEG14 net216 VPWR VGND sg13g2_buf_1
X_232_ net19 net86 Inst_N_IO_ConfigMem.Inst_frame1_bit24.Q VPWR VGND sg13g2_dlhq_1
X_163_ net13 net73 Inst_N_IO_ConfigMem.Inst_frame3_bit19.Q VPWR VGND sg13g2_dlhq_1
X_094_ _007_ net44 net69 VPWR VGND sg13g2_nand2b_1
X_301_ net20 net140 VPWR VGND sg13g2_buf_1
XFILLER_10_87 VPWR VGND sg13g2_fill_1
X_215_ net32 net84 Inst_N_IO_ConfigMem.Inst_frame1_bit7.Q VPWR VGND sg13g2_dlhq_1
X_146_ Inst_N_IO_ConfigMem.Inst_frame2_bit30.Q net65 net104 net101 net1 Inst_N_IO_ConfigMem.Inst_frame2_bit31.Q
+ Inst_N_IO_switch_matrix.S4BEG6 VPWR VGND sg13g2_mux4_1
X_077_ Inst_N_IO_ConfigMem.Inst_frame0_bit23.Q VPWR _037_ VGND net42 Inst_N_IO_ConfigMem.Inst_frame0_bit24.Q
+ sg13g2_o21ai_1
XFILLER_7_44 VPWR VGND sg13g2_fill_2
Xinput80 NN4END[2] net103 VPWR VGND sg13g2_buf_1
X_129_ Inst_N_IO_ConfigMem.Inst_frame0_bit1.Q net49 net53 net51 net55 Inst_N_IO_ConfigMem.Inst_frame0_bit0.Q
+ Inst_N_IO_switch_matrix.SS4BEG7 VPWR VGND sg13g2_mux4_1
XFILLER_8_127 VPWR VGND sg13g2_fill_1
XFILLER_4_344 VPWR VGND sg13g2_fill_1
XFILLER_5_108 VPWR VGND sg13g2_fill_1
XFILLER_4_12 VPWR VGND sg13g2_fill_2
X_377_ Inst_N_IO_switch_matrix.SS4BEG13 net215 VPWR VGND sg13g2_buf_1
XFILLER_1_199 VPWR VGND sg13g2_fill_2
Xfanout88 net89 net88 VPWR VGND sg13g2_buf_1
Xfanout77 net78 net77 VPWR VGND sg13g2_buf_1
XFILLER_5_450 VPWR VGND sg13g2_fill_1
X_231_ net18 net86 Inst_N_IO_ConfigMem.Inst_frame1_bit23.Q VPWR VGND sg13g2_dlhq_1
X_300_ net19 net139 VPWR VGND sg13g2_buf_1
X_162_ net12 net71 Inst_N_IO_ConfigMem.Inst_frame3_bit18.Q VPWR VGND sg13g2_dlhq_1
XFILLER_6_236 VPWR VGND sg13g2_decap_8
X_093_ _006_ net69 net45 VPWR VGND sg13g2_nand2_1
Xinput1 A_O_top net1 VPWR VGND sg13g2_buf_1
X_214_ net31 net83 Inst_N_IO_ConfigMem.Inst_frame1_bit6.Q VPWR VGND sg13g2_dlhq_1
X_076_ _001_ net40 _036_ VPWR VGND Inst_N_IO_ConfigMem.Inst_frame0_bit23.Q sg13g2_nand3b_1
X_145_ Inst_N_IO_ConfigMem.Inst_frame1_bit0.Q net64 net103 net100 net2 Inst_N_IO_ConfigMem.Inst_frame1_bit1.Q
+ Inst_N_IO_switch_matrix.S4BEG7 VPWR VGND sg13g2_mux4_1
Xoutput190 net213 SS4BEG[11] VPWR VGND sg13g2_buf_1
X_059_ Inst_N_IO_ConfigMem.Inst_frame2_bit2.Q net47 net92 net108 net101 Inst_N_IO_ConfigMem.Inst_frame2_bit3.Q
+ Inst_N_IO_switch_matrix.S2BEGb0 VPWR VGND sg13g2_mux4_1
X_128_ Inst_N_IO_ConfigMem.Inst_frame0_bit3.Q net66 net93 net68 net57 Inst_N_IO_ConfigMem.Inst_frame0_bit2.Q
+ Inst_N_IO_switch_matrix.SS4BEG8 VPWR VGND sg13g2_mux4_1
Xinput81 NN4END[3] net104 VPWR VGND sg13g2_buf_1
Xinput70 N4END[8] net93 VPWR VGND sg13g2_buf_1
XFILLER_9_404 VPWR VGND sg13g2_fill_2
XFILLER_10_458 VPWR VGND sg13g2_fill_1
XFILLER_6_429 VPWR VGND sg13g2_decap_8
Xfanout78 FrameStrobe[2] net78 VPWR VGND sg13g2_buf_1
Xfanout89 FrameStrobe[0] net89 VPWR VGND sg13g2_buf_1
X_376_ Inst_N_IO_switch_matrix.SS4BEG12 net214 VPWR VGND sg13g2_buf_1
XFILLER_9_267 VPWR VGND sg13g2_fill_2
XFILLER_9_223 VPWR VGND sg13g2_fill_2
X_230_ net17 net86 Inst_N_IO_ConfigMem.Inst_frame1_bit22.Q VPWR VGND sg13g2_dlhq_1
X_161_ net11 net75 Inst_N_IO_ConfigMem.Inst_frame3_bit17.Q VPWR VGND sg13g2_dlhq_1
XFILLER_6_259 VPWR VGND sg13g2_decap_8
X_092_ VGND VPWR _004_ Inst_N_IO_ConfigMem.Inst_frame0_bit27.Q _003_ Inst_N_IO_ConfigMem.Inst_frame0_bit26.Q
+ _005_ _002_ sg13g2_a221oi_1
X_359_ Inst_N_IO_switch_matrix.S4BEG11 net197 VPWR VGND sg13g2_buf_1
XFILLER_2_432 VPWR VGND sg13g2_decap_8
Xinput2 B_O_top net2 VPWR VGND sg13g2_buf_1
XFILLER_10_12 VPWR VGND sg13g2_decap_8
X_144_ Inst_N_IO_ConfigMem.Inst_frame1_bit2.Q net37 net60 net99 Inst_A_IO_1_bidirectional_frame_config_pass.Q
+ Inst_N_IO_ConfigMem.Inst_frame1_bit3.Q Inst_N_IO_switch_matrix.S4BEG8 VPWR VGND
+ sg13g2_mux4_1
X_075_ _034_ VPWR _035_ VGND Inst_N_IO_ConfigMem.Inst_frame0_bit23.Q _033_ sg13g2_o21ai_1
XFILLER_2_240 VPWR VGND sg13g2_fill_1
X_213_ net30 net85 Inst_N_IO_ConfigMem.Inst_frame1_bit5.Q VPWR VGND sg13g2_dlhq_1
Xoutput180 net203 S4BEG[2] VPWR VGND sg13g2_buf_1
Xoutput191 net214 SS4BEG[12] VPWR VGND sg13g2_buf_1
XFILLER_11_383 VPWR VGND sg13g2_fill_2
X_127_ Inst_N_IO_ConfigMem.Inst_frame0_bit4.Q net63 net65 net67 net92 Inst_N_IO_ConfigMem.Inst_frame0_bit5.Q
+ Inst_N_IO_switch_matrix.SS4BEG9 VPWR VGND sg13g2_mux4_1
XFILLER_7_46 VPWR VGND sg13g2_fill_1
X_058_ Inst_N_IO_ConfigMem.Inst_frame2_bit4.Q net46 net68 net107 net100 Inst_N_IO_ConfigMem.Inst_frame2_bit5.Q
+ Inst_N_IO_switch_matrix.S2BEGb1 VPWR VGND sg13g2_mux4_1
Xinput71 N4END[9] net94 VPWR VGND sg13g2_buf_1
Xinput82 NN4END[4] net105 VPWR VGND sg13g2_buf_1
Xinput60 N4END[13] net60 VPWR VGND sg13g2_buf_1
Xfanout79 net81 net79 VPWR VGND sg13g2_buf_1
X_375_ Inst_N_IO_switch_matrix.SS4BEG11 net213 VPWR VGND sg13g2_buf_1
XFILLER_5_441 VPWR VGND sg13g2_decap_8
X_358_ Inst_N_IO_switch_matrix.S4BEG10 net196 VPWR VGND sg13g2_buf_1
X_091_ VGND VPWR net69 _000_ _004_ Inst_N_IO_ConfigMem.Inst_frame0_bit26.Q sg13g2_a21oi_1
X_160_ net10 net71 Inst_N_IO_ConfigMem.Inst_frame3_bit16.Q VPWR VGND sg13g2_dlhq_1
X_289_ net7 net127 VPWR VGND sg13g2_buf_1
Xinput3 FrameData[0] net3 VPWR VGND sg13g2_buf_1
X_074_ Inst_N_IO_ConfigMem.Inst_frame0_bit23.Q _001_ net41 _034_ VPWR VGND sg13g2_nand3_1
X_212_ net29 net83 Inst_N_IO_ConfigMem.Inst_frame1_bit4.Q VPWR VGND sg13g2_dlhq_1
X_143_ Inst_N_IO_ConfigMem.Inst_frame1_bit4.Q net36 net59 net98 Inst_B_IO_1_bidirectional_frame_config_pass.Q
+ Inst_N_IO_ConfigMem.Inst_frame1_bit5.Q Inst_N_IO_switch_matrix.S4BEG9 VPWR VGND
+ sg13g2_mux4_1
Xoutput181 net204 S4BEG[3] VPWR VGND sg13g2_buf_1
Xoutput170 net193 S2BEGb[6] VPWR VGND sg13g2_buf_1
Xoutput192 net215 SS4BEG[13] VPWR VGND sg13g2_buf_1
X_057_ Inst_N_IO_ConfigMem.Inst_frame2_bit6.Q net45 net67 net106 net99 Inst_N_IO_ConfigMem.Inst_frame2_bit7.Q
+ Inst_N_IO_switch_matrix.S2BEGb2 VPWR VGND sg13g2_mux4_1
XFILLER_7_366 VPWR VGND sg13g2_fill_1
XFILLER_7_355 VPWR VGND sg13g2_decap_8
X_126_ Inst_N_IO_ConfigMem.Inst_frame0_bit6.Q net56 net64 net66 net1 Inst_N_IO_ConfigMem.Inst_frame0_bit7.Q
+ Inst_N_IO_switch_matrix.SS4BEG10 VPWR VGND sg13g2_mux4_1
Xinput72 NN4END[0] net95 VPWR VGND sg13g2_buf_1
Xinput83 NN4END[5] net106 VPWR VGND sg13g2_buf_1
Xinput50 N2MID[2] net50 VPWR VGND sg13g2_buf_1
Xinput61 N4END[14] net61 VPWR VGND sg13g2_buf_1
X_109_ _021_ net45 net70 VPWR VGND sg13g2_nand2_1
Xfanout69 Inst_N_IO_ConfigMem.Inst_frame0_bit25.Q net69 VPWR VGND sg13g2_buf_1
X_374_ Inst_N_IO_switch_matrix.SS4BEG10 net212 VPWR VGND sg13g2_buf_1
X_090_ VGND VPWR _003_ net40 net69 sg13g2_or2_1
X_288_ net6 net126 VPWR VGND sg13g2_buf_1
Xinput4 FrameData[10] net4 VPWR VGND sg13g2_buf_1
X_357_ Inst_N_IO_switch_matrix.S4BEG9 net210 VPWR VGND sg13g2_buf_1
XFILLER_5_250 VPWR VGND sg13g2_fill_1
XFILLER_5_272 VPWR VGND sg13g2_fill_2
X_142_ Inst_N_IO_ConfigMem.Inst_frame1_bit7.Q net94 net99 net110 Inst_A_IO_1_bidirectional_frame_config_pass.Q
+ Inst_N_IO_ConfigMem.Inst_frame1_bit6.Q Inst_N_IO_switch_matrix.S4BEG10 VPWR VGND
+ sg13g2_mux4_1
X_211_ net28 net83 Inst_N_IO_ConfigMem.Inst_frame1_bit3.Q VPWR VGND sg13g2_dlhq_1
X_073_ _032_ VPWR _033_ VGND net55 Inst_N_IO_ConfigMem.Inst_frame0_bit24.Q sg13g2_o21ai_1
XFILLER_2_70 VPWR VGND sg13g2_fill_2
Xoutput193 net216 SS4BEG[14] VPWR VGND sg13g2_buf_1
X_125_ Inst_N_IO_ConfigMem.Inst_frame0_bit8.Q net68 net93 net57 net2 Inst_N_IO_ConfigMem.Inst_frame0_bit9.Q
+ Inst_N_IO_switch_matrix.SS4BEG11 VPWR VGND sg13g2_mux4_1
Xoutput182 net205 S4BEG[4] VPWR VGND sg13g2_buf_1
Xoutput171 net194 S2BEGb[7] VPWR VGND sg13g2_buf_1
Xoutput160 net183 S2BEG[4] VPWR VGND sg13g2_buf_1
X_056_ Inst_N_IO_ConfigMem.Inst_frame2_bit8.Q net44 net66 net105 net98 Inst_N_IO_ConfigMem.Inst_frame2_bit9.Q
+ Inst_N_IO_switch_matrix.S2BEGb3 VPWR VGND sg13g2_mux4_1
Xinput73 NN4END[10] net96 VPWR VGND sg13g2_buf_1
Xinput62 N4END[15] net62 VPWR VGND sg13g2_buf_1
Xinput51 N2MID[3] net51 VPWR VGND sg13g2_buf_1
Xinput84 NN4END[6] net107 VPWR VGND sg13g2_buf_1
Xinput40 N2END[0] net40 VPWR VGND sg13g2_buf_1
X_108_ VGND VPWR _019_ Inst_N_IO_ConfigMem.Inst_frame0_bit20.Q _018_ Inst_N_IO_ConfigMem.Inst_frame0_bit19.Q
+ _020_ _017_ sg13g2_a221oi_1
X_373_ Inst_N_IO_switch_matrix.SS4BEG9 net226 VPWR VGND sg13g2_buf_1
XFILLER_5_81 VPWR VGND sg13g2_fill_1
XFILLER_10_269 VPWR VGND sg13g2_fill_2
XFILLER_10_203 VPWR VGND sg13g2_fill_1
XFILLER_6_207 VPWR VGND sg13g2_decap_4
XFILLER_2_446 VPWR VGND sg13g2_decap_4
X_287_ net5 net125 VPWR VGND sg13g2_buf_1
X_356_ Inst_N_IO_switch_matrix.S4BEG8 net209 VPWR VGND sg13g2_buf_1
Xinput5 FrameData[11] net5 VPWR VGND sg13g2_buf_1
XFILLER_10_26 VPWR VGND sg13g2_decap_4
X_072_ _032_ Inst_N_IO_ConfigMem.Inst_frame0_bit24.Q net43 VPWR VGND sg13g2_nand2b_1
X_210_ net25 net83 Inst_N_IO_ConfigMem.Inst_frame1_bit2.Q VPWR VGND sg13g2_dlhq_1
X_141_ Inst_N_IO_ConfigMem.Inst_frame1_bit9.Q net93 net98 net109 Inst_B_IO_1_bidirectional_frame_config_pass.Q
+ Inst_N_IO_ConfigMem.Inst_frame1_bit8.Q Inst_N_IO_switch_matrix.S4BEG11 VPWR VGND
+ sg13g2_mux4_1
X_339_ Inst_N_IO_switch_matrix.S2BEG7 net186 VPWR VGND sg13g2_buf_1
XFILLER_11_353 VPWR VGND sg13g2_fill_1
Xoutput150 net173 FrameStrobe_O[8] VPWR VGND sg13g2_buf_1
X_124_ Inst_N_IO_ConfigMem.Inst_frame0_bit10.Q net63 net65 net67 Inst_A_IO_1_bidirectional_frame_config_pass.Q
+ Inst_N_IO_ConfigMem.Inst_frame0_bit11.Q Inst_N_IO_switch_matrix.SS4BEG12 VPWR VGND
+ sg13g2_mux4_1
X_055_ Inst_N_IO_ConfigMem.Inst_frame2_bit10.Q net43 net65 net104 net97 Inst_N_IO_ConfigMem.Inst_frame2_bit11.Q
+ Inst_N_IO_switch_matrix.S2BEGb4 VPWR VGND sg13g2_mux4_1
XFILLER_7_379 VPWR VGND sg13g2_decap_4
Xoutput161 net184 S2BEG[5] VPWR VGND sg13g2_buf_1
Xoutput172 net195 S4BEG[0] VPWR VGND sg13g2_buf_1
Xoutput194 net217 SS4BEG[15] VPWR VGND sg13g2_buf_1
Xoutput183 net206 S4BEG[5] VPWR VGND sg13g2_buf_1
Xinput41 N2END[1] net41 VPWR VGND sg13g2_buf_1
Xinput74 NN4END[11] net97 VPWR VGND sg13g2_buf_1
Xinput85 NN4END[7] net108 VPWR VGND sg13g2_buf_1
Xinput63 N4END[1] net63 VPWR VGND sg13g2_buf_1
Xinput52 N2MID[4] net52 VPWR VGND sg13g2_buf_1
Xinput30 FrameData[5] net30 VPWR VGND sg13g2_buf_1
XFILLER_11_194 VPWR VGND sg13g2_fill_2
X_107_ VGND VPWR _000_ net70 _019_ Inst_N_IO_ConfigMem.Inst_frame0_bit19.Q sg13g2_a21oi_1
XFILLER_10_429 VPWR VGND sg13g2_fill_2
XFILLER_9_249 VPWR VGND sg13g2_fill_1
XFILLER_8_8 VPWR VGND sg13g2_decap_8
X_372_ Inst_N_IO_switch_matrix.SS4BEG8 net225 VPWR VGND sg13g2_buf_1
XFILLER_10_237 VPWR VGND sg13g2_fill_2
XFILLER_2_425 VPWR VGND sg13g2_decap_8
X_286_ net4 net124 VPWR VGND sg13g2_buf_1
X_355_ Inst_N_IO_switch_matrix.S4BEG7 net208 VPWR VGND sg13g2_buf_1
Xinput6 FrameData[12] net6 VPWR VGND sg13g2_buf_1
X_140_ Inst_N_IO_ConfigMem.Inst_frame1_bit11.Q net37 net106 net67 Inst_A_IO_1_bidirectional_frame_config_pass.Q
+ Inst_N_IO_ConfigMem.Inst_frame1_bit10.Q Inst_N_IO_switch_matrix.S4BEG12 VPWR VGND
+ sg13g2_mux4_1
X_071_ net39 net1 Inst_N_IO_ConfigMem.Inst_frame3_bit14.Q Inst_N_IO_switch_matrix.S1BEG0
+ VPWR VGND sg13g2_mux2_1
X_338_ Inst_N_IO_switch_matrix.S2BEG6 net185 VPWR VGND sg13g2_buf_1
X_269_ net24 net89 Inst_N_IO_ConfigMem.Inst_frame0_bit29.Q VPWR VGND sg13g2_dlhq_1
Xoutput140 net163 FrameStrobe_O[17] VPWR VGND sg13g2_buf_1
Xoutput151 net174 FrameStrobe_O[9] VPWR VGND sg13g2_buf_1
Xoutput195 net218 SS4BEG[1] VPWR VGND sg13g2_buf_1
Xoutput173 net196 S4BEG[10] VPWR VGND sg13g2_buf_1
Xoutput162 net185 S2BEG[6] VPWR VGND sg13g2_buf_1
Xoutput184 net207 S4BEG[6] VPWR VGND sg13g2_buf_1
XFILLER_11_70 VPWR VGND sg13g2_fill_2
Xinput20 FrameData[25] net20 VPWR VGND sg13g2_buf_1
X_123_ Inst_N_IO_ConfigMem.Inst_frame0_bit12.Q net92 net94 net58 Inst_B_IO_1_bidirectional_frame_config_pass.Q
+ Inst_N_IO_ConfigMem.Inst_frame0_bit13.Q Inst_N_IO_switch_matrix.SS4BEG13 VPWR VGND
+ sg13g2_mux4_1
Xinput31 FrameData[6] net31 VPWR VGND sg13g2_buf_1
X_054_ Inst_N_IO_ConfigMem.Inst_frame2_bit12.Q net42 net64 net103 net96 Inst_N_IO_ConfigMem.Inst_frame2_bit13.Q
+ Inst_N_IO_switch_matrix.S2BEGb5 VPWR VGND sg13g2_mux4_1
Xinput64 N4END[2] net64 VPWR VGND sg13g2_buf_1
Xinput42 N2END[2] net42 VPWR VGND sg13g2_buf_1
XFILLER_6_391 VPWR VGND sg13g2_fill_2
Xinput53 N2MID[5] net53 VPWR VGND sg13g2_buf_1
Xinput86 NN4END[8] net109 VPWR VGND sg13g2_buf_1
Xinput75 NN4END[12] net98 VPWR VGND sg13g2_buf_1
X_106_ VGND VPWR _018_ net70 net40 sg13g2_or2_1
XFILLER_7_166 VPWR VGND sg13g2_fill_2
XFILLER_0_364 VPWR VGND sg13g2_fill_2