*SPEF "ieee 1481-1999"
*DESIGN "S_CPU_IRQ"
*DATE "16:58:25 Thursday April 03, 2025"
*VENDOR "The OpenROAD Project"
*PROGRAM "OpenROAD"
*VERSION "87af90f72f3f9be1fdfa1d886f0dd8d8b8f34694"
*DESIGN_FLOW "NAME_SCOPE LOCAL" "PIN_CAP NONE"
*DIVIDER /
*DELIMITER :
*BUS_DELIMITER []
*T_UNIT 1 NS
*C_UNIT 1 PF
*R_UNIT 1 OHM
*L_UNIT 1 HENRY

*NAME_MAP
*1 CONFIGURED_top
*2 net157
*3 FrameData[0]
*4 FrameData[10]
*5 FrameData[11]
*6 FrameData[12]
*7 FrameData[13]
*8 FrameData[14]
*9 FrameData[15]
*10 FrameData[16]
*11 FrameData[17]
*12 FrameData[18]
*13 FrameData[19]
*14 FrameData[1]
*15 FrameData[20]
*16 FrameData[21]
*17 FrameData[22]
*18 FrameData[23]
*19 FrameData[24]
*20 FrameData[25]
*21 FrameData[26]
*22 FrameData[27]
*23 FrameData[28]
*24 FrameData[29]
*25 FrameData[2]
*26 FrameData[30]
*27 FrameData[31]
*28 FrameData[3]
*29 FrameData[4]
*30 FrameData[5]
*31 FrameData[6]
*32 FrameData[7]
*33 FrameData[8]
*34 FrameData[9]
*35 FrameData_O[0]
*36 FrameData_O[10]
*37 FrameData_O[11]
*38 FrameData_O[12]
*39 FrameData_O[13]
*40 FrameData_O[14]
*41 FrameData_O[15]
*42 FrameData_O[16]
*43 FrameData_O[17]
*44 FrameData_O[18]
*45 FrameData_O[19]
*46 FrameData_O[1]
*47 FrameData_O[20]
*48 FrameData_O[21]
*49 FrameData_O[22]
*50 FrameData_O[23]
*51 FrameData_O[24]
*52 FrameData_O[25]
*53 FrameData_O[26]
*54 FrameData_O[27]
*55 FrameData_O[28]
*56 FrameData_O[29]
*57 FrameData_O[2]
*58 FrameData_O[30]
*59 FrameData_O[31]
*60 FrameData_O[3]
*61 FrameData_O[4]
*62 FrameData_O[5]
*63 FrameData_O[6]
*64 FrameData_O[7]
*65 FrameData_O[8]
*66 FrameData_O[9]
*67 FrameStrobe[0]
*68 FrameStrobe[10]
*69 FrameStrobe[11]
*70 FrameStrobe[12]
*71 FrameStrobe[13]
*72 FrameStrobe[14]
*73 FrameStrobe[15]
*74 FrameStrobe[16]
*75 FrameStrobe[17]
*76 FrameStrobe[18]
*77 FrameStrobe[19]
*78 FrameStrobe[1]
*79 FrameStrobe[2]
*80 FrameStrobe[3]
*81 FrameStrobe[4]
*82 FrameStrobe[5]
*83 FrameStrobe[6]
*84 FrameStrobe[7]
*85 FrameStrobe[8]
*86 FrameStrobe[9]
*87 FrameStrobe_O[0]
*88 FrameStrobe_O[10]
*89 FrameStrobe_O[11]
*90 FrameStrobe_O[12]
*91 FrameStrobe_O[13]
*92 FrameStrobe_O[14]
*93 FrameStrobe_O[15]
*94 FrameStrobe_O[16]
*95 FrameStrobe_O[17]
*96 FrameStrobe_O[18]
*97 FrameStrobe_O[19]
*98 FrameStrobe_O[1]
*99 FrameStrobe_O[2]
*100 FrameStrobe_O[3]
*101 FrameStrobe_O[4]
*102 FrameStrobe_O[5]
*103 FrameStrobe_O[6]
*104 FrameStrobe_O[7]
*105 FrameStrobe_O[8]
*106 FrameStrobe_O[9]
*107 IRQ_top0
*108 IRQ_top1
*109 IRQ_top2
*110 IRQ_top3
*111 N1BEG[0]
*112 N1BEG[1]
*113 N1BEG[2]
*114 N1BEG[3]
*115 N2BEG[0]
*116 N2BEG[1]
*117 N2BEG[2]
*118 N2BEG[3]
*119 N2BEG[4]
*120 N2BEG[5]
*121 N2BEG[6]
*122 N2BEG[7]
*123 N2BEGb[0]
*124 N2BEGb[1]
*125 N2BEGb[2]
*126 N2BEGb[3]
*127 N2BEGb[4]
*128 N2BEGb[5]
*129 N2BEGb[6]
*130 N2BEGb[7]
*131 N4BEG[0]
*132 N4BEG[10]
*133 N4BEG[11]
*134 N4BEG[12]
*135 N4BEG[13]
*136 N4BEG[14]
*137 N4BEG[15]
*138 N4BEG[1]
*139 N4BEG[2]
*140 N4BEG[3]
*141 N4BEG[4]
*142 N4BEG[5]
*143 N4BEG[6]
*144 N4BEG[7]
*145 N4BEG[8]
*146 N4BEG[9]
*147 NN4BEG[0]
*148 NN4BEG[10]
*149 NN4BEG[11]
*150 NN4BEG[12]
*151 NN4BEG[13]
*152 NN4BEG[14]
*153 NN4BEG[15]
*154 NN4BEG[1]
*155 NN4BEG[2]
*156 NN4BEG[3]
*157 NN4BEG[4]
*158 NN4BEG[5]
*159 NN4BEG[6]
*160 NN4BEG[7]
*161 NN4BEG[8]
*162 NN4BEG[9]
*163 S1END[0]
*164 S1END[1]
*165 S1END[2]
*166 S1END[3]
*167 S2END[0]
*168 S2END[1]
*169 S2END[2]
*170 S2END[3]
*171 S2END[4]
*172 S2END[5]
*173 S2END[6]
*174 S2END[7]
*175 S2MID[0]
*176 S2MID[1]
*177 S2MID[2]
*178 S2MID[3]
*179 S2MID[4]
*180 S2MID[5]
*181 S2MID[6]
*182 S2MID[7]
*183 S4END[0]
*184 S4END[10]
*185 S4END[11]
*186 S4END[12]
*187 S4END[13]
*188 S4END[14]
*189 S4END[15]
*190 S4END[1]
*191 S4END[2]
*192 S4END[3]
*193 S4END[4]
*194 S4END[5]
*195 S4END[6]
*196 S4END[7]
*197 S4END[8]
*198 S4END[9]
*199 SS4END[0]
*200 SS4END[10]
*201 SS4END[11]
*202 SS4END[12]
*203 SS4END[13]
*204 SS4END[14]
*205 SS4END[15]
*206 SS4END[1]
*207 SS4END[2]
*208 SS4END[3]
*209 SS4END[4]
*210 SS4END[5]
*211 SS4END[6]
*212 SS4END[7]
*213 SS4END[8]
*214 SS4END[9]
*215 UserCLK
*216 UserCLKo
*219 Inst_S_CPU_IRQ_ConfigMem\.Inst_frame0_bit20\.Q
*220 Inst_S_CPU_IRQ_ConfigMem\.Inst_frame0_bit21\.Q
*221 Inst_S_CPU_IRQ_ConfigMem\.Inst_frame0_bit22\.Q
*222 Inst_S_CPU_IRQ_ConfigMem\.Inst_frame0_bit23\.Q
*223 Inst_S_CPU_IRQ_ConfigMem\.Inst_frame0_bit24\.Q
*224 Inst_S_CPU_IRQ_ConfigMem\.Inst_frame0_bit25\.Q
*225 Inst_S_CPU_IRQ_ConfigMem\.Inst_frame0_bit26\.Q
*226 Inst_S_CPU_IRQ_ConfigMem\.Inst_frame0_bit27\.Q
*227 Inst_S_CPU_IRQ_ConfigMem\.Inst_frame0_bit28\.Q
*228 Inst_S_CPU_IRQ_ConfigMem\.Inst_frame0_bit29\.Q
*229 Inst_S_CPU_IRQ_ConfigMem\.Inst_frame0_bit30\.Q
*230 Inst_S_CPU_IRQ_ConfigMem\.Inst_frame0_bit31\.Q
*231 _000_
*232 _001_
*233 _002_
*234 _003_
*235 _004_
*236 _005_
*237 _006_
*238 _007_
*239 _008_
*240 _009_
*241 _010_
*242 _011_
*243 _012_
*244 _013_
*245 _014_
*246 _015_
*247 _016_
*248 _017_
*249 _018_
*250 _019_
*251 _020_
*252 _021_
*253 _022_
*254 _023_
*255 _024_
*256 _025_
*257 _026_
*258 _027_
*259 _028_
*260 _029_
*261 _030_
*262 _031_
*263 _032_
*264 _033_
*265 _034_
*266 _035_
*267 net1
*268 net10
*269 net100
*270 net101
*271 net102
*272 net103
*273 net104
*274 net105
*275 net106
*276 net107
*277 net108
*278 net109
*279 net11
*280 net110
*281 net111
*282 net112
*283 net113
*284 net114
*285 net115
*286 net116
*287 net117
*288 net118
*289 net119
*290 net12
*291 net120
*292 net121
*293 net122
*294 net123
*295 net124
*296 net125
*297 net126
*298 net127
*299 net128
*300 net129
*301 net13
*302 net130
*303 net131
*304 net132
*305 net133
*306 net134
*307 net135
*308 net136
*309 net137
*310 net138
*311 net139
*312 net14
*313 net140
*314 net141
*315 net142
*316 net143
*317 net144
*318 net145
*319 net146
*320 net147
*321 net148
*322 net149
*323 net15
*324 net150
*325 net151
*326 net152
*327 net153
*328 net154
*329 net155
*330 net156
*331 net16
*332 net17
*333 net18
*334 net19
*335 net2
*336 net20
*337 net21
*338 net22
*339 net23
*340 net24
*341 net25
*342 net26
*343 net27
*344 net28
*345 net29
*346 net3
*347 net30
*348 net31
*349 net32
*350 net33
*351 net34
*352 net35
*353 net36
*354 net37
*355 net38
*356 net39
*357 net4
*358 net40
*359 net41
*360 net42
*361 net43
*362 net44
*363 net45
*364 net46
*365 net47
*366 net48
*367 net49
*368 net5
*369 net50
*370 net51
*371 net52
*372 net53
*373 net54
*374 net55
*375 net56
*376 net57
*377 net58
*378 net59
*379 net6
*380 net60
*381 net61
*382 net62
*383 net63
*384 net64
*385 net65
*386 net66
*387 net67
*388 net68
*389 net69
*390 net7
*391 net70
*392 net71
*393 net72
*394 net73
*395 net74
*396 net75
*397 net76
*398 net77
*399 net78
*400 net79
*401 net8
*402 net80
*403 net81
*404 net82
*405 net83
*406 net84
*407 net85
*408 net86
*409 net87
*410 net88
*411 net89
*412 net9
*413 net90
*414 net91
*415 net92
*416 net93
*417 net94
*418 net95
*419 net96
*420 net97
*421 net98
*422 net99
*423 ANTENNA_1
*424 ANTENNA_10
*425 ANTENNA_11
*426 ANTENNA_12
*427 ANTENNA_13
*428 ANTENNA_14
*429 ANTENNA_15
*430 ANTENNA_16
*431 ANTENNA_17
*432 ANTENNA_18
*433 ANTENNA_19
*434 ANTENNA_2
*435 ANTENNA_20
*436 ANTENNA_21
*437 ANTENNA_22
*438 ANTENNA_23
*439 ANTENNA_24
*440 ANTENNA_25
*441 ANTENNA_26
*442 ANTENNA_27
*443 ANTENNA_28
*444 ANTENNA_29
*445 ANTENNA_3
*446 ANTENNA_30
*447 ANTENNA_31
*448 ANTENNA_32
*449 ANTENNA_33
*450 ANTENNA_34
*451 ANTENNA_35
*452 ANTENNA_36
*453 ANTENNA_37
*454 ANTENNA_38
*455 ANTENNA_39
*456 ANTENNA_4
*457 ANTENNA_40
*458 ANTENNA_41
*459 ANTENNA_42
*460 ANTENNA_43
*461 ANTENNA_44
*462 ANTENNA_45
*463 ANTENNA_46
*464 ANTENNA_47
*465 ANTENNA_48
*466 ANTENNA_49
*467 ANTENNA_5
*468 ANTENNA_50
*469 ANTENNA_51
*470 ANTENNA_52
*471 ANTENNA_53
*472 ANTENNA_54
*473 ANTENNA_6
*474 ANTENNA_7
*475 ANTENNA_8
*476 ANTENNA_9
*477 FILLER_0_0
*478 FILLER_0_100
*479 FILLER_0_107
*480 FILLER_0_114
*481 FILLER_0_121
*482 FILLER_0_128
*483 FILLER_0_135
*484 FILLER_0_14
*485 FILLER_0_142
*486 FILLER_0_149
*487 FILLER_0_156
*488 FILLER_0_163
*489 FILLER_0_170
*490 FILLER_0_177
*491 FILLER_0_184
*492 FILLER_0_191
*493 FILLER_0_198
*494 FILLER_0_2
*495 FILLER_0_205
*496 FILLER_0_212
*497 FILLER_0_219
*498 FILLER_0_226
*499 FILLER_0_233
*500 FILLER_0_240
*501 FILLER_0_247
*502 FILLER_0_25
*503 FILLER_0_254
*504 FILLER_0_261
*505 FILLER_0_268
*506 FILLER_0_275
*507 FILLER_0_282
*508 FILLER_0_289
*509 FILLER_0_296
*510 FILLER_0_303
*511 FILLER_0_310
*512 FILLER_0_317
*513 FILLER_0_32
*514 FILLER_0_324
*515 FILLER_0_331
*516 FILLER_0_338
*517 FILLER_0_345
*518 FILLER_0_352
*519 FILLER_0_359
*520 FILLER_0_366
*521 FILLER_0_373
*522 FILLER_0_380
*523 FILLER_0_387
*524 FILLER_0_394
*525 FILLER_0_401
*526 FILLER_0_408
*527 FILLER_0_415
*528 FILLER_0_422
*529 FILLER_0_429
*530 FILLER_0_43
*531 FILLER_0_436
*532 FILLER_0_438
*533 FILLER_0_50
*534 FILLER_0_61
*535 FILLER_0_68
*536 FILLER_0_7
*537 FILLER_0_79
*538 FILLER_0_86
*539 FILLER_0_93
*540 FILLER_10_24
*541 FILLER_10_273
*542 FILLER_10_280
*543 FILLER_10_309
*544 FILLER_10_31
*545 FILLER_10_369
*546 FILLER_10_376
*547 FILLER_10_38
*548 FILLER_10_383
*549 FILLER_10_390
*550 FILLER_10_397
*551 FILLER_10_404
*552 FILLER_10_45
*553 FILLER_10_451
*554 FILLER_10_52
*555 FILLER_10_59
*556 FILLER_10_66
*557 FILLER_10_73
*558 FILLER_10_80
*559 FILLER_10_84
*560 FILLER_1_0
*561 FILLER_1_106
*562 FILLER_1_117
*563 FILLER_1_123
*564 FILLER_1_127
*565 FILLER_1_137
*566 FILLER_1_14
*567 FILLER_1_142
*568 FILLER_1_147
*569 FILLER_1_154
*570 FILLER_1_161
*571 FILLER_1_168
*572 FILLER_1_175
*573 FILLER_1_182
*574 FILLER_1_189
*575 FILLER_1_196
*576 FILLER_1_203
*577 FILLER_1_21
*578 FILLER_1_210
*579 FILLER_1_217
*580 FILLER_1_219
*581 FILLER_1_241
*582 FILLER_1_248
*583 FILLER_1_255
*584 FILLER_1_262
*585 FILLER_1_269
*586 FILLER_1_276
*587 FILLER_1_28
*588 FILLER_1_283
*589 FILLER_1_290
*590 FILLER_1_297
*591 FILLER_1_304
*592 FILLER_1_311
*593 FILLER_1_318
*594 FILLER_1_325
*595 FILLER_1_332
*596 FILLER_1_339
*597 FILLER_1_346
*598 FILLER_1_35
*599 FILLER_1_353
*600 FILLER_1_360
*601 FILLER_1_367
*602 FILLER_1_374
*603 FILLER_1_381
*604 FILLER_1_388
*605 FILLER_1_392
*606 FILLER_1_401
*607 FILLER_1_403
*608 FILLER_1_42
*609 FILLER_1_425
*610 FILLER_1_434
*611 FILLER_1_441
*612 FILLER_1_445
*613 FILLER_1_49
*614 FILLER_1_56
*615 FILLER_1_63
*616 FILLER_1_7
*617 FILLER_1_70
*618 FILLER_1_77
*619 FILLER_1_81
*620 FILLER_1_99
*621 FILLER_2_0
*622 FILLER_2_106
*623 FILLER_2_138
*624 FILLER_2_14
*625 FILLER_2_145
*626 FILLER_2_150
*627 FILLER_2_173
*628 FILLER_2_180
*629 FILLER_2_187
*630 FILLER_2_194
*631 FILLER_2_201
*632 FILLER_2_208
*633 FILLER_2_21
*634 FILLER_2_251
*635 FILLER_2_253
*636 FILLER_2_275
*637 FILLER_2_28
*638 FILLER_2_282
*639 FILLER_2_289
*640 FILLER_2_296
*641 FILLER_2_303
*642 FILLER_2_310
*643 FILLER_2_317
*644 FILLER_2_324
*645 FILLER_2_331
*646 FILLER_2_338
*647 FILLER_2_345
*648 FILLER_2_35
*649 FILLER_2_352
*650 FILLER_2_359
*651 FILLER_2_366
*652 FILLER_2_373
*653 FILLER_2_380
*654 FILLER_2_390
*655 FILLER_2_395
*656 FILLER_2_397
*657 FILLER_2_415
*658 FILLER_2_417
*659 FILLER_2_42
*660 FILLER_2_438
*661 FILLER_2_445
*662 FILLER_2_449
*663 FILLER_2_49
*664 FILLER_2_56
*665 FILLER_2_63
*666 FILLER_2_7
*667 FILLER_2_70
*668 FILLER_2_77
*669 FILLER_2_82
*670 FILLER_2_84
*671 FILLER_3_0
*672 FILLER_3_105
*673 FILLER_3_109
*674 FILLER_3_133
*675 FILLER_3_14
*676 FILLER_3_140
*677 FILLER_3_144
*678 FILLER_3_150
*679 FILLER_3_157
*680 FILLER_3_164
*681 FILLER_3_172
*682 FILLER_3_190
*683 FILLER_3_197
*684 FILLER_3_204
*685 FILLER_3_21
*686 FILLER_3_211
*687 FILLER_3_218
*688 FILLER_3_247
*689 FILLER_3_254
*690 FILLER_3_261
*691 FILLER_3_268
*692 FILLER_3_275
*693 FILLER_3_28
*694 FILLER_3_280
*695 FILLER_3_287
*696 FILLER_3_294
*697 FILLER_3_301
*698 FILLER_3_308
*699 FILLER_3_315
*700 FILLER_3_322
*701 FILLER_3_329
*702 FILLER_3_333
*703 FILLER_3_338
*704 FILLER_3_345
*705 FILLER_3_35
*706 FILLER_3_352
*707 FILLER_3_359
*708 FILLER_3_366
*709 FILLER_3_373
*710 FILLER_3_380
*711 FILLER_3_391
*712 FILLER_3_398
*713 FILLER_3_405
*714 FILLER_3_419
*715 FILLER_3_42
*716 FILLER_3_430
*717 FILLER_3_437
*718 FILLER_3_444
*719 FILLER_3_49
*720 FILLER_3_56
*721 FILLER_3_63
*722 FILLER_3_7
*723 FILLER_3_70
*724 FILLER_3_77
*725 FILLER_3_84
*726 FILLER_3_91
*727 FILLER_3_98
*728 FILLER_4_0
*729 FILLER_4_105
*730 FILLER_4_112
*731 FILLER_4_119
*732 FILLER_4_125
*733 FILLER_4_132
*734 FILLER_4_139
*735 FILLER_4_14
*736 FILLER_4_146
*737 FILLER_4_153
*738 FILLER_4_160
*739 FILLER_4_167
*740 FILLER_4_174
*741 FILLER_4_181
*742 FILLER_4_188
*743 FILLER_4_195
*744 FILLER_4_202
*745 FILLER_4_21
*746 FILLER_4_225
*747 FILLER_4_229
*748 FILLER_4_234
*749 FILLER_4_241
*750 FILLER_4_248
*751 FILLER_4_255
*752 FILLER_4_262
*753 FILLER_4_269
*754 FILLER_4_273
*755 FILLER_4_28
*756 FILLER_4_292
*757 FILLER_4_299
*758 FILLER_4_306
*759 FILLER_4_313
*760 FILLER_4_320
*761 FILLER_4_327
*762 FILLER_4_334
*763 FILLER_4_341
*764 FILLER_4_35
*765 FILLER_4_360
*766 FILLER_4_367
*767 FILLER_4_374
*768 FILLER_4_381
*769 FILLER_4_388
*770 FILLER_4_395
*771 FILLER_4_402
*772 FILLER_4_409
*773 FILLER_4_416
*774 FILLER_4_42
*775 FILLER_4_423
*776 FILLER_4_430
*777 FILLER_4_437
*778 FILLER_4_444
*779 FILLER_4_49
*780 FILLER_4_56
*781 FILLER_4_63
*782 FILLER_4_7
*783 FILLER_4_70
*784 FILLER_4_77
*785 FILLER_4_84
*786 FILLER_4_91
*787 FILLER_4_98
*788 FILLER_5_0
*789 FILLER_5_105
*790 FILLER_5_112
*791 FILLER_5_119
*792 FILLER_5_126
*793 FILLER_5_133
*794 FILLER_5_14
*795 FILLER_5_140
*796 FILLER_5_147
*797 FILLER_5_154
*798 FILLER_5_161
*799 FILLER_5_168
*800 FILLER_5_175
*801 FILLER_5_182
*802 FILLER_5_189
*803 FILLER_5_196
*804 FILLER_5_203
*805 FILLER_5_21
*806 FILLER_5_210
*807 FILLER_5_217
*808 FILLER_5_224
*809 FILLER_5_231
*810 FILLER_5_238
*811 FILLER_5_245
*812 FILLER_5_252
*813 FILLER_5_259
*814 FILLER_5_266
*815 FILLER_5_273
*816 FILLER_5_28
*817 FILLER_5_280
*818 FILLER_5_287
*819 FILLER_5_294
*820 FILLER_5_301
*821 FILLER_5_308
*822 FILLER_5_315
*823 FILLER_5_322
*824 FILLER_5_329
*825 FILLER_5_336
*826 FILLER_5_343
*827 FILLER_5_347
*828 FILLER_5_35
*829 FILLER_5_352
*830 FILLER_5_359
*831 FILLER_5_366
*832 FILLER_5_373
*833 FILLER_5_380
*834 FILLER_5_387
*835 FILLER_5_394
*836 FILLER_5_401
*837 FILLER_5_408
*838 FILLER_5_415
*839 FILLER_5_42
*840 FILLER_5_422
*841 FILLER_5_429
*842 FILLER_5_436
*843 FILLER_5_450
*844 FILLER_5_49
*845 FILLER_5_56
*846 FILLER_5_63
*847 FILLER_5_7
*848 FILLER_5_70
*849 FILLER_5_77
*850 FILLER_5_84
*851 FILLER_5_91
*852 FILLER_5_98
*853 FILLER_6_0
*854 FILLER_6_105
*855 FILLER_6_112
*856 FILLER_6_119
*857 FILLER_6_126
*858 FILLER_6_133
*859 FILLER_6_14
*860 FILLER_6_140
*861 FILLER_6_147
*862 FILLER_6_154
*863 FILLER_6_161
*864 FILLER_6_168
*865 FILLER_6_175
*866 FILLER_6_182
*867 FILLER_6_189
*868 FILLER_6_196
*869 FILLER_6_203
*870 FILLER_6_21
*871 FILLER_6_210
*872 FILLER_6_217
*873 FILLER_6_224
*874 FILLER_6_231
*875 FILLER_6_238
*876 FILLER_6_245
*877 FILLER_6_252
*878 FILLER_6_259
*879 FILLER_6_277
*880 FILLER_6_28
*881 FILLER_6_284
*882 FILLER_6_286
*883 FILLER_6_292
*884 FILLER_6_302
*885 FILLER_6_309
*886 FILLER_6_314
*887 FILLER_6_321
*888 FILLER_6_328
*889 FILLER_6_335
*890 FILLER_6_342
*891 FILLER_6_346
*892 FILLER_6_35
*893 FILLER_6_352
*894 FILLER_6_354
*895 FILLER_6_363
*896 FILLER_6_370
*897 FILLER_6_372
*898 FILLER_6_377
*899 FILLER_6_384
*900 FILLER_6_391
*901 FILLER_6_398
*902 FILLER_6_405
*903 FILLER_6_412
*904 FILLER_6_419
*905 FILLER_6_42
*906 FILLER_6_425
*907 FILLER_6_432
*908 FILLER_6_439
*909 FILLER_6_450
*910 FILLER_6_49
*911 FILLER_6_56
*912 FILLER_6_63
*913 FILLER_6_7
*914 FILLER_6_70
*915 FILLER_6_77
*916 FILLER_6_84
*917 FILLER_6_91
*918 FILLER_6_98
*919 FILLER_7_0
*920 FILLER_7_101
*921 FILLER_7_125
*922 FILLER_7_132
*923 FILLER_7_139
*924 FILLER_7_14
*925 FILLER_7_143
*926 FILLER_7_148
*927 FILLER_7_158
*928 FILLER_7_160
*929 FILLER_7_166
*930 FILLER_7_178
*931 FILLER_7_185
*932 FILLER_7_192
*933 FILLER_7_199
*934 FILLER_7_206
*935 FILLER_7_21
*936 FILLER_7_217
*937 FILLER_7_222
*938 FILLER_7_229
*939 FILLER_7_236
*940 FILLER_7_243
*941 FILLER_7_250
*942 FILLER_7_252
*943 FILLER_7_274
*944 FILLER_7_281
*945 FILLER_7_283
*946 FILLER_7_31
*947 FILLER_7_324
*948 FILLER_7_331
*949 FILLER_7_338
*950 FILLER_7_345
*951 FILLER_7_352
*952 FILLER_7_356
*953 FILLER_7_361
*954 FILLER_7_368
*955 FILLER_7_375
*956 FILLER_7_38
*957 FILLER_7_382
*958 FILLER_7_393
*959 FILLER_7_407
*960 FILLER_7_415
*961 FILLER_7_422
*962 FILLER_7_429
*963 FILLER_7_431
*964 FILLER_7_447
*965 FILLER_7_45
*966 FILLER_7_52
*967 FILLER_7_59
*968 FILLER_7_66
*969 FILLER_7_7
*970 FILLER_7_73
*971 FILLER_7_80
*972 FILLER_7_87
*973 FILLER_7_94
*974 FILLER_8_109
*975 FILLER_8_131
*976 FILLER_8_15
*977 FILLER_8_185
*978 FILLER_8_213
*979 FILLER_8_22
*980 FILLER_8_220
*981 FILLER_8_227
*982 FILLER_8_234
*983 FILLER_8_241
*984 FILLER_8_248
*985 FILLER_8_255
*986 FILLER_8_257
*987 FILLER_8_262
*988 FILLER_8_269
*989 FILLER_8_276
*990 FILLER_8_283
*991 FILLER_8_29
*992 FILLER_8_307
*993 FILLER_8_311
*994 FILLER_8_325
*995 FILLER_8_332
*996 FILLER_8_339
*997 FILLER_8_346
*998 FILLER_8_36
*999 FILLER_8_360
*1000 FILLER_8_367
*1001 FILLER_8_374
*1002 FILLER_8_391
*1003 FILLER_8_397
*1004 FILLER_8_401
*1005 FILLER_8_410
*1006 FILLER_8_417
*1007 FILLER_8_424
*1008 FILLER_8_43
*1009 FILLER_8_454
*1010 FILLER_8_50
*1011 FILLER_8_57
*1012 FILLER_8_64
*1013 FILLER_8_71
*1014 FILLER_8_78
*1015 FILLER_8_8
*1016 FILLER_8_85
*1017 FILLER_8_92
*1018 FILLER_8_99
*1019 FILLER_9_148
*1020 FILLER_9_16
*1021 FILLER_9_162
*1022 FILLER_9_164
*1023 FILLER_9_169
*1024 FILLER_9_179
*1025 FILLER_9_212
*1026 FILLER_9_221
*1027 FILLER_9_237
*1028 FILLER_9_244
*1029 FILLER_9_26
*1030 FILLER_9_267
*1031 FILLER_9_274
*1032 FILLER_9_281
*1033 FILLER_9_288
*1034 FILLER_9_290
*1035 FILLER_9_295
*1036 FILLER_9_300
*1037 FILLER_9_307
*1038 FILLER_9_314
*1039 FILLER_9_321
*1040 FILLER_9_33
*1041 FILLER_9_351
*1042 FILLER_9_361
*1043 FILLER_9_368
*1044 FILLER_9_375
*1045 FILLER_9_382
*1046 FILLER_9_40
*1047 FILLER_9_47
*1048 FILLER_9_54
*1049 FILLER_9_61
*1050 FILLER_9_68
*1051 FILLER_9_75
*1052 FILLER_9_82
*1053 FILLER_9_89
*1054 FILLER_9_91
*1055 S_CPU_IRQ_155
*1056 _036_
*1057 _037_
*1058 _038_
*1059 _039_
*1060 _040_
*1061 _041_
*1062 _042_
*1063 _043_
*1064 _044_
*1065 _045_
*1066 _046_
*1067 _047_
*1068 _048_
*1069 _049_
*1070 _050_
*1071 _051_
*1072 _052_
*1073 _053_
*1074 _054_
*1075 _055_
*1076 _056_
*1077 _057_
*1078 _058_
*1079 _059_
*1080 _060_
*1081 _061_
*1082 _062_
*1083 _063_
*1084 _064_
*1085 _065_
*1086 _066_
*1087 _067_
*1088 _068_
*1089 _069_
*1090 _070_
*1091 _071_
*1092 _072_
*1093 _073_
*1094 _074_
*1095 _075_
*1096 _076_
*1097 _077_
*1098 _078_
*1099 _079_
*1100 _080_
*1101 _081_
*1102 _082_
*1103 _083_
*1104 _084_
*1105 _085_
*1106 _086_
*1107 _087_
*1108 _089_
*1109 _090_
*1110 _091_
*1111 _092_
*1112 _093_
*1113 _094_
*1114 _095_
*1115 _096_
*1116 _097_
*1117 _098_
*1118 _099_
*1119 _100_
*1120 _101_
*1121 _102_
*1122 _103_
*1123 _104_
*1124 _105_
*1125 _106_
*1126 _107_
*1127 _108_
*1128 _109_
*1129 _110_
*1130 _111_
*1131 _112_
*1132 _113_
*1133 _114_
*1134 _115_
*1135 _116_
*1136 _117_
*1137 _118_
*1138 _119_
*1139 _120_
*1140 _121_
*1141 _122_
*1142 _123_
*1143 _124_
*1144 _125_
*1145 _126_
*1146 _127_
*1147 _128_
*1148 _129_
*1149 _130_
*1150 _131_
*1151 _132_
*1152 _133_
*1153 _134_
*1154 _135_
*1155 _136_
*1156 _137_
*1157 _138_
*1158 _139_
*1159 _140_
*1160 _141_
*1161 _142_
*1162 _143_
*1163 _144_
*1164 _145_
*1165 _146_
*1166 _147_
*1167 _148_
*1168 _149_
*1169 _150_
*1170 _151_
*1171 _152_
*1172 _153_
*1173 _154_
*1174 _155_
*1175 _156_
*1176 _157_
*1177 _158_
*1178 _159_
*1179 _160_
*1180 _161_
*1181 _162_
*1182 _163_
*1183 _164_
*1184 _165_
*1185 _166_
*1186 _167_
*1187 _168_
*1188 _169_
*1189 _170_
*1190 _171_
*1191 _172_
*1192 _173_
*1193 _174_
*1194 _175_
*1195 _176_
*1196 _177_
*1197 _178_
*1198 _179_
*1199 _180_
*1200 _181_
*1201 _182_
*1202 _183_
*1203 _184_
*1204 _185_
*1205 _186_
*1206 _187_
*1207 _188_
*1208 _189_
*1209 _190_
*1210 _191_
*1211 _192_
*1212 _193_
*1213 fanout5
*1214 fanout6
*1215 input1
*1216 input10
*1217 input11
*1218 input12
*1219 input13
*1220 input14
*1221 input15
*1222 input16
*1223 input17
*1224 input18
*1225 input19
*1226 input2
*1227 input20
*1228 input21
*1229 input22
*1230 input23
*1231 input24
*1232 input25
*1233 input26
*1234 input27
*1235 input28
*1236 input29
*1237 input3
*1238 input30
*1239 input31
*1240 input32
*1241 input33
*1242 input34
*1243 input35
*1244 input36
*1245 input37
*1246 input38
*1247 input39
*1248 input4
*1249 input40
*1250 input41
*1251 input42
*1252 input43
*1253 input44
*1254 input45
*1255 input5
*1256 input6
*1257 input7
*1258 input8
*1259 input9
*1260 output100
*1261 output101
*1262 output102
*1263 output103
*1264 output104
*1265 output105
*1266 output106
*1267 output107
*1268 output108
*1269 output109
*1270 output110
*1271 output111
*1272 output112
*1273 output113
*1274 output114
*1275 output115
*1276 output116
*1277 output117
*1278 output118
*1279 output119
*1280 output120
*1281 output121
*1282 output122
*1283 output123
*1284 output124
*1285 output125
*1286 output126
*1287 output127
*1288 output128
*1289 output129
*1290 output130
*1291 output131
*1292 output132
*1293 output133
*1294 output134
*1295 output135
*1296 output136
*1297 output137
*1298 output138
*1299 output139
*1300 output140
*1301 output141
*1302 output142
*1303 output143
*1304 output144
*1305 output145
*1306 output146
*1307 output147
*1308 output148
*1309 output149
*1310 output150
*1311 output151
*1312 output152
*1313 output153
*1314 output154
*1315 output46
*1316 output47
*1317 output48
*1318 output49
*1319 output50
*1320 output51
*1321 output52
*1322 output53
*1323 output54
*1324 output55
*1325 output56
*1326 output57
*1327 output58
*1328 output59
*1329 output60
*1330 output61
*1331 output62
*1332 output63
*1333 output64
*1334 output65
*1335 output66
*1336 output67
*1337 output68
*1338 output69
*1339 output70
*1340 output71
*1341 output72
*1342 output73
*1343 output74
*1344 output75
*1345 output76
*1346 output77
*1347 output78
*1348 output79
*1349 output80
*1350 output81
*1351 output82
*1352 output83
*1353 output84
*1354 output85
*1355 output86
*1356 output87
*1357 output88
*1358 output89
*1359 output90
*1360 output91
*1361 output92
*1362 output93
*1363 output94
*1364 output95
*1365 output96
*1366 output97
*1367 output98
*1368 output99

*PORTS
CONFIGURED_top I
Co O
FrameData[0] I
FrameData[10] I
FrameData[11] I
FrameData[12] I
FrameData[13] I
FrameData[14] I
FrameData[15] I
FrameData[16] I
FrameData[17] I
FrameData[18] I
FrameData[19] I
FrameData[1] I
FrameData[20] I
FrameData[21] I
FrameData[22] I
FrameData[23] I
FrameData[24] I
FrameData[25] I
FrameData[26] I
FrameData[27] I
FrameData[28] I
FrameData[29] I
FrameData[2] I
FrameData[30] I
FrameData[31] I
FrameData[3] I
FrameData[4] I
FrameData[5] I
FrameData[6] I
FrameData[7] I
FrameData[8] I
FrameData[9] I
FrameData_O[0] O
FrameData_O[10] O
FrameData_O[11] O
FrameData_O[12] O
FrameData_O[13] O
FrameData_O[14] O
FrameData_O[15] O
FrameData_O[16] O
FrameData_O[17] O
FrameData_O[18] O
FrameData_O[19] O
FrameData_O[1] O
FrameData_O[20] O
FrameData_O[21] O
FrameData_O[22] O
FrameData_O[23] O
FrameData_O[24] O
FrameData_O[25] O
FrameData_O[26] O
FrameData_O[27] O
FrameData_O[28] O
FrameData_O[29] O
FrameData_O[2] O
FrameData_O[30] O
FrameData_O[31] O
FrameData_O[3] O
FrameData_O[4] O
FrameData_O[5] O
FrameData_O[6] O
FrameData_O[7] O
FrameData_O[8] O
FrameData_O[9] O
FrameStrobe[0] I
FrameStrobe[10] I
FrameStrobe[11] I
FrameStrobe[12] I
FrameStrobe[13] I
FrameStrobe[14] I
FrameStrobe[15] I
FrameStrobe[16] I
FrameStrobe[17] I
FrameStrobe[18] I
FrameStrobe[19] I
FrameStrobe[1] I
FrameStrobe[2] I
FrameStrobe[3] I
FrameStrobe[4] I
FrameStrobe[5] I
FrameStrobe[6] I
FrameStrobe[7] I
FrameStrobe[8] I
FrameStrobe[9] I
FrameStrobe_O[0] O
FrameStrobe_O[10] O
FrameStrobe_O[11] O
FrameStrobe_O[12] O
FrameStrobe_O[13] O
FrameStrobe_O[14] O
FrameStrobe_O[15] O
FrameStrobe_O[16] O
FrameStrobe_O[17] O
FrameStrobe_O[18] O
FrameStrobe_O[19] O
FrameStrobe_O[1] O
FrameStrobe_O[2] O
FrameStrobe_O[3] O
FrameStrobe_O[4] O
FrameStrobe_O[5] O
FrameStrobe_O[6] O
FrameStrobe_O[7] O
FrameStrobe_O[8] O
FrameStrobe_O[9] O
IRQ_top0 O
IRQ_top1 O
IRQ_top2 O
IRQ_top3 O
N1BEG[0] O
N1BEG[1] O
N1BEG[2] O
N1BEG[3] O
N2BEG[0] O
N2BEG[1] O
N2BEG[2] O
N2BEG[3] O
N2BEG[4] O
N2BEG[5] O
N2BEG[6] O
N2BEG[7] O
N2BEGb[0] O
N2BEGb[1] O
N2BEGb[2] O
N2BEGb[3] O
N2BEGb[4] O
N2BEGb[5] O
N2BEGb[6] O
N2BEGb[7] O
N4BEG[0] O
N4BEG[10] O
N4BEG[11] O
N4BEG[12] O
N4BEG[13] O
N4BEG[14] O
N4BEG[15] O
N4BEG[1] O
N4BEG[2] O
N4BEG[3] O
N4BEG[4] O
N4BEG[5] O
N4BEG[6] O
N4BEG[7] O
N4BEG[8] O
N4BEG[9] O
NN4BEG[0] O
NN4BEG[10] O
NN4BEG[11] O
NN4BEG[12] O
NN4BEG[13] O
NN4BEG[14] O
NN4BEG[15] O
NN4BEG[1] O
NN4BEG[2] O
NN4BEG[3] O
NN4BEG[4] O
NN4BEG[5] O
NN4BEG[6] O
NN4BEG[7] O
NN4BEG[8] O
NN4BEG[9] O
S1END[0] I
S1END[1] I
S1END[2] I
S1END[3] I
S2END[0] I
S2END[1] I
S2END[2] I
S2END[3] I
S2END[4] I
S2END[5] I
S2END[6] I
S2END[7] I
S2MID[0] I
S2MID[1] I
S2MID[2] I
S2MID[3] I
S2MID[4] I
S2MID[5] I
S2MID[6] I
S2MID[7] I
S4END[0] I
S4END[10] I
S4END[11] I
S4END[12] I
S4END[13] I
S4END[14] I
S4END[15] I
S4END[1] I
S4END[2] I
S4END[3] I
S4END[4] I
S4END[5] I
S4END[6] I
S4END[7] I
S4END[8] I
S4END[9] I
SS4END[0] I
SS4END[10] I
SS4END[11] I
SS4END[12] I
SS4END[13] I
SS4END[14] I
SS4END[15] I
SS4END[1] I
SS4END[2] I
SS4END[3] I
SS4END[4] I
SS4END[5] I
SS4END[6] I
SS4END[7] I
SS4END[8] I
SS4END[9] I
UserCLK I
UserCLKo O

*D_NET *1 0.000922795
*CONN
*P CONFIGURED_top I
*I *1215:A I *D sg13g2_buf_1
*CAP
1 CONFIGURED_top 0.000461398
2 *1215:A 0.000461398
3 *1215:A *29:11 0
4 *1215:A *30:13 0
*RES
1 CONFIGURED_top *1215:A 45.2736 
*END

*D_NET *2 0.00245726
*CONN
*P Co O
*I *1055:L_LO O *D sg13g2_tielo
*CAP
1 Co 0.00100015
2 *1055:L_LO 0.00100015
3 Co NN4BEG[14] 0.00018113
4 Co NN4BEG[15] 0
5 Co *1220:A 0
6 Co *307:18 0.000180816
7 Co *331:16 0
8 Co *332:12 9.50089e-05
*RES
1 *1055:L_LO Co 48.4872 
*END

*D_NET *3 0.0207181
*CONN
*P FrameData[0] I
*I *1108:A I *D sg13g2_buf_1
*CAP
1 FrameData[0] 0.00966324
2 *1108:A 0
3 *3:11 0.000695817
4 *3:5 0.0103591
5 *3:5 *14:5 0
6 *3:5 *78:9 0
7 *3:5 *215:9 0
8 *3:11 *14:11 0
9 *3:11 *28:11 0
10 *3:11 *76:13 0
11 *3:11 *78:13 0
12 *3:11 *385:18 0
*RES
1 FrameData[0] *3:5 108.456 
2 *3:5 *3:11 43.7612 
3 *3:11 *1108:A 20 
*END

*D_NET *4 0.0338941
*CONN
*P FrameData[10] I
*I *423:A I *D sg13g2_antennanp
*I *474:A I *D sg13g2_antennanp
*I *427:A I *D sg13g2_antennanp
*I *433:A I *D sg13g2_antennanp
*I *440:A I *D sg13g2_antennanp
*I *446:A I *D sg13g2_antennanp
*I *451:A I *D sg13g2_antennanp
*I *457:A I *D sg13g2_antennanp
*I *462:A I *D sg13g2_antennanp
*I *1118:A I *D sg13g2_buf_1
*I *468:A I *D sg13g2_antennanp
*CAP
1 FrameData[10] 0.000333439
2 *423:A 2.23299e-05
3 *474:A 0
4 *427:A 0
5 *433:A 0
6 *440:A 0
7 *446:A 0
8 *451:A 0
9 *457:A 0
10 *462:A 0
11 *1118:A 0
12 *468:A 5.81751e-05
13 *4:87 7.95515e-05
14 *4:80 0.000128093
15 *4:73 0.000142808
16 *4:66 0.000141349
17 *4:59 0.000138734
18 *4:52 0.000141347
19 *4:45 0.000127392
20 *4:38 0.000105856
21 *4:31 7.38332e-05
22 *4:15 0.00130253
23 *4:11 0.00992545
24 *4:9 0.00899119
25 *423:A *454:A 0.000128351
26 *423:A *214:21 0.000106254
27 *468:A *321:6 0.000181422
28 *468:A *405:24 0.000181422
29 *4:9 *5:9 0
30 *4:9 *33:15 0
31 *4:9 *34:9 0
32 *4:11 *13:13 0
33 *4:11 *30:27 0.0073507
34 *4:11 *84:9 0.000664842
35 *4:11 *332:30 0
36 *4:11 *336:25 0
37 *4:11 *354:14 0
38 *4:11 *368:39 0
39 *4:11 *368:43 0
40 *4:11 *384:12 0
41 *4:11 *385:12 0
42 *4:15 *5:46 0
43 *4:15 *70:13 0
44 *4:15 *73:9 0.00124037
45 *4:15 *76:25 7.89572e-05
46 *4:15 *202:27 0.000172114
47 *4:15 *327:18 0
48 *4:15 *383:28 0
49 *4:15 *392:14 0
50 *4:31 *214:21 0.000128618
51 *4:31 *405:24 0.000128618
52 *4:38 *214:21 0.000266066
53 *4:38 *405:24 0.000288241
54 *4:45 *214:21 0.000159325
55 *4:45 *367:8 0
56 *4:45 *405:24 7.51684e-05
57 *4:52 *214:21 0.000159286
58 *4:52 *367:8 0
59 *4:59 *214:21 0.000159663
60 *4:59 *367:8 0
61 *4:66 *214:21 0.000159624
62 *4:66 *367:8 0
63 *4:73 *214:21 0.000159325
64 *4:73 *367:8 0
65 *4:80 *214:21 0.000159435
66 *4:80 *367:8 0
67 *4:87 *454:A 7.51291e-05
68 *4:87 *214:21 0.000159097
*RES
1 FrameData[10] *4:9 43.6436 
2 *4:9 *4:11 93.7918 
3 *4:11 *4:15 32.6484 
4 *4:15 *468:A 40.8446 
5 *468:A *4:31 20.5974 
6 *4:31 *1118:A 20 
7 *4:31 *4:38 1.339 
8 *4:38 *462:A 20 
9 *4:38 *4:45 0.8446 
10 *4:45 *457:A 20 
11 *4:45 *4:52 0.8446 
12 *4:52 *451:A 20 
13 *4:52 *4:59 0.8446 
14 *4:59 *446:A 20 
15 *4:59 *4:66 0.8446 
16 *4:66 *440:A 20 
17 *4:66 *4:73 0.8446 
18 *4:73 *433:A 20 
19 *4:73 *4:80 0.8446 
20 *4:80 *427:A 20 
21 *4:80 *4:87 0.8446 
22 *4:87 *474:A 20 
23 *4:87 *423:A 20.5974 
*END

*D_NET *5 0.0300774
*CONN
*P FrameData[11] I
*I *1119:A I *D sg13g2_buf_1
*I *469:A I *D sg13g2_antennanp
*I *458:A I *D sg13g2_antennanp
*I *441:A I *D sg13g2_antennanp
*I *447:A I *D sg13g2_antennanp
*I *452:A I *D sg13g2_antennanp
*I *463:A I *D sg13g2_antennanp
*I *428:A I *D sg13g2_antennanp
*I *434:A I *D sg13g2_antennanp
*I *475:A I *D sg13g2_antennanp
*I *435:A I *D sg13g2_antennanp
*CAP
1 FrameData[11] 0.000341229
2 *1119:A 0.000127139
3 *469:A 0
4 *458:A 0
5 *441:A 5.70035e-05
6 *447:A 0
7 *452:A 0
8 *463:A 0
9 *428:A 0
10 *434:A 0
11 *475:A 0
12 *435:A 0
13 *5:79 0.000123092
14 *5:72 8.09439e-05
15 *5:66 0.000132309
16 *5:60 0.000184829
17 *5:53 0.000150782
18 *5:46 0.000269553
19 *5:40 0.000382441
20 *5:33 0.000115234
21 *5:26 7.87223e-05
22 *5:19 0.00106139
23 *5:11 0.0101023
24 *5:9 0.00941483
25 *441:A *303:6 0.000159097
26 *441:A *320:14 0
27 *441:A *370:16 7.51291e-05
28 *1119:A *204:19 0.000128201
29 *1119:A *205:21 0
30 *1119:A *325:14 0
31 *5:9 *6:5 0
32 *5:11 *13:13 0
33 *5:11 *30:27 0
34 *5:11 *302:16 0.00130568
35 *5:11 *353:36 0.000451082
36 *5:11 *358:14 0.00199388
37 *5:11 *358:28 0.000183113
38 *5:11 *362:18 0
39 *5:11 *368:14 0.000814669
40 *5:19 *9:49 0
41 *5:19 *202:27 0.00012839
42 *5:19 *204:19 0.00012839
43 *5:19 *392:14 0
44 *5:19 *403:14 0
45 *5:26 *202:27 0.000159286
46 *5:26 *204:19 0.000181462
47 *5:33 *202:27 0.000106214
48 *5:33 *204:19 0.000181383
49 *5:40 *204:19 0.000181383
50 *5:40 *325:14 0
51 *5:46 *70:13 0