* NGSPICE file created from IHP_SRAM.ext - technology: ihp-sg13g2

* Black-box entry subcircuit for sg13g2_mux4_1 abstract view
.subckt sg13g2_mux4_1 S0 A0 A1 A2 A3 S1 X VDD VSS
.ends

* Black-box entry subcircuit for sg13g2_inv_1 abstract view
.subckt sg13g2_inv_1 VDD Y A VSS
.ends

* Black-box entry subcircuit for sg13g2_decap_8 abstract view
.subckt sg13g2_decap_8 VDD VSS
.ends

* Black-box entry subcircuit for sg13g2_fill_1 abstract view
.subckt sg13g2_fill_1 VDD VSS
.ends

* Black-box entry subcircuit for sg13g2_dlhq_1 abstract view
.subckt sg13g2_dlhq_1 D GATE Q VDD VSS
.ends

* Black-box entry subcircuit for sg13g2_buf_1 abstract view
.subckt sg13g2_buf_1 A X VDD VSS
.ends

* Black-box entry subcircuit for sg13g2_a21oi_1 abstract view
.subckt sg13g2_a21oi_1 VSS VDD A1 A2 Y B1
.ends

* Black-box entry subcircuit for sg13g2_fill_2 abstract view
.subckt sg13g2_fill_2 VDD VSS
.ends

* Black-box entry subcircuit for sg13g2_decap_4 abstract view
.subckt sg13g2_decap_4 VDD VSS
.ends

* Black-box entry subcircuit for sg13g2_nand2b_1 abstract view
.subckt sg13g2_nand2b_1 Y B A_N VDD VSS
.ends

* Black-box entry subcircuit for sg13g2_o21ai_1 abstract view
.subckt sg13g2_o21ai_1 B1 VDD Y VSS A1 A2
.ends

* Black-box entry subcircuit for sg13g2_mux2_1 abstract view
.subckt sg13g2_mux2_1 A0 A1 S X VDD VSS
.ends

* Black-box entry subcircuit for sg13g2_nor2b_1 abstract view
.subckt sg13g2_nor2b_1 A B_N Y VDD VSS
.ends

* Black-box entry subcircuit for sg13g2_nor2_1 abstract view
.subckt sg13g2_nor2_1 A B Y VDD VSS
.ends

* Black-box entry subcircuit for sg13g2_nor3_1 abstract view
.subckt sg13g2_nor3_1 A B C Y VDD VSS
.ends

* Black-box entry subcircuit for sg13g2_nand2_1 abstract view
.subckt sg13g2_nand2_1 Y A B VDD VSS
.ends

* Black-box entry subcircuit for sg13g2_tielo abstract view
.subckt sg13g2_tielo VDD VSS L_LO
.ends

* Black-box entry subcircuit for sg13g2_a221oi_1 abstract view
.subckt sg13g2_a221oi_1 VSS VDD B2 C1 B1 A1 Y A2
.ends

* Black-box entry subcircuit for sg13g2_nand3_1 abstract view
.subckt sg13g2_nand3_1 B C A Y VDD VSS
.ends

* Black-box entry subcircuit for sg13g2_nand3b_1 abstract view
.subckt sg13g2_nand3b_1 B C Y VDD VSS A_N
.ends

* Black-box entry subcircuit for sg13g2_tiehi abstract view
.subckt sg13g2_tiehi VDD VSS L_HI
.ends

* Black-box entry subcircuit for sg13g2_a22oi_1 abstract view
.subckt sg13g2_a22oi_1 Y B1 B2 A2 A1 VDD VSS
.ends

* Black-box entry subcircuit for sg13g2_nand4_1 abstract view
.subckt sg13g2_nand4_1 B C A Y VDD VSS D
.ends

* Black-box entry subcircuit for sg13g2_or2_1 abstract view
.subckt sg13g2_or2_1 VSS VDD X B A
.ends

* Black-box entry subcircuit for sg13g2_or3_1 abstract view
.subckt sg13g2_or3_1 A B C X VDD VSS
.ends

* Black-box entry subcircuit for sg13g2_and2_1 abstract view
.subckt sg13g2_and2_1 A B X VDD VSS
.ends

.subckt IHP_SRAM ADDR_SRAM0 ADDR_SRAM1 ADDR_SRAM2 ADDR_SRAM3 ADDR_SRAM4 ADDR_SRAM5
+ ADDR_SRAM6 ADDR_SRAM7 ADDR_SRAM8 ADDR_SRAM9 BM_SRAM0 BM_SRAM1 BM_SRAM10 BM_SRAM11
+ BM_SRAM12 BM_SRAM13 BM_SRAM14 BM_SRAM15 BM_SRAM16 BM_SRAM17 BM_SRAM18 BM_SRAM19
+ BM_SRAM2 BM_SRAM20 BM_SRAM21 BM_SRAM22 BM_SRAM23 BM_SRAM24 BM_SRAM25 BM_SRAM26 BM_SRAM27
+ BM_SRAM28 BM_SRAM29 BM_SRAM3 BM_SRAM30 BM_SRAM31 BM_SRAM4 BM_SRAM5 BM_SRAM6 BM_SRAM7
+ BM_SRAM8 BM_SRAM9 CLK_SRAM CONFIGURED_top DIN_SRAM0 DIN_SRAM1 DIN_SRAM10 DIN_SRAM11
+ DIN_SRAM12 DIN_SRAM13 DIN_SRAM14 DIN_SRAM15 DIN_SRAM16 DIN_SRAM17 DIN_SRAM18 DIN_SRAM19
+ DIN_SRAM2 DIN_SRAM20 DIN_SRAM21 DIN_SRAM22 DIN_SRAM23 DIN_SRAM24 DIN_SRAM25 DIN_SRAM26
+ DIN_SRAM27 DIN_SRAM28 DIN_SRAM29 DIN_SRAM3 DIN_SRAM30 DIN_SRAM31 DIN_SRAM4 DIN_SRAM5
+ DIN_SRAM6 DIN_SRAM7 DIN_SRAM8 DIN_SRAM9 DOUT_SRAM0 DOUT_SRAM1 DOUT_SRAM10 DOUT_SRAM11
+ DOUT_SRAM12 DOUT_SRAM13 DOUT_SRAM14 DOUT_SRAM15 DOUT_SRAM16 DOUT_SRAM17 DOUT_SRAM18
+ DOUT_SRAM19 DOUT_SRAM2 DOUT_SRAM20 DOUT_SRAM21 DOUT_SRAM22 DOUT_SRAM23 DOUT_SRAM24
+ DOUT_SRAM25 DOUT_SRAM26 DOUT_SRAM27 DOUT_SRAM28 DOUT_SRAM29 DOUT_SRAM3 DOUT_SRAM30
+ DOUT_SRAM31 DOUT_SRAM4 DOUT_SRAM5 DOUT_SRAM6 DOUT_SRAM7 DOUT_SRAM8 DOUT_SRAM9 MEN_SRAM
+ REN_SRAM TIE_HIGH_SRAM TIE_LOW_SRAM Tile_X0Y0_E1END[0] Tile_X0Y0_E1END[1] Tile_X0Y0_E1END[2]
+ Tile_X0Y0_E1END[3] Tile_X0Y0_E2END[0] Tile_X0Y0_E2END[1] Tile_X0Y0_E2END[2] Tile_X0Y0_E2END[3]
+ Tile_X0Y0_E2END[4] Tile_X0Y0_E2END[5] Tile_X0Y0_E2END[6] Tile_X0Y0_E2END[7] Tile_X0Y0_E2MID[0]
+ Tile_X0Y0_E2MID[1] Tile_X0Y0_E2MID[2] Tile_X0Y0_E2MID[3] Tile_X0Y0_E2MID[4] Tile_X0Y0_E2MID[5]
+ Tile_X0Y0_E2MID[6] Tile_X0Y0_E2MID[7] Tile_X0Y0_E6END[0] Tile_X0Y0_E6END[10] Tile_X0Y0_E6END[11]
+ Tile_X0Y0_E6END[1] Tile_X0Y0_E6END[2] Tile_X0Y0_E6END[3] Tile_X0Y0_E6END[4] Tile_X0Y0_E6END[5]
+ Tile_X0Y0_E6END[6] Tile_X0Y0_E6END[7] Tile_X0Y0_E6END[8] Tile_X0Y0_E6END[9] Tile_X0Y0_EE4END[0]
+ Tile_X0Y0_EE4END[10] Tile_X0Y0_EE4END[11] Tile_X0Y0_EE4END[12] Tile_X0Y0_EE4END[13]
+ Tile_X0Y0_EE4END[14] Tile_X0Y0_EE4END[15] Tile_X0Y0_EE4END[1] Tile_X0Y0_EE4END[2]
+ Tile_X0Y0_EE4END[3] Tile_X0Y0_EE4END[4] Tile_X0Y0_EE4END[5] Tile_X0Y0_EE4END[6]
+ Tile_X0Y0_EE4END[7] Tile_X0Y0_EE4END[8] Tile_X0Y0_EE4END[9] Tile_X0Y0_FrameData[0]
+ Tile_X0Y0_FrameData[10] Tile_X0Y0_FrameData[11] Tile_X0Y0_FrameData[12] Tile_X0Y0_FrameData[13]
+ Tile_X0Y0_FrameData[14] Tile_X0Y0_FrameData[15] Tile_X0Y0_FrameData[16] Tile_X0Y0_FrameData[17]
+ Tile_X0Y0_FrameData[18] Tile_X0Y0_FrameData[19] Tile_X0Y0_FrameData[1] Tile_X0Y0_FrameData[20]
+ Tile_X0Y0_FrameData[21] Tile_X0Y0_FrameData[22] Tile_X0Y0_FrameData[23] Tile_X0Y0_FrameData[24]
+ Tile_X0Y0_FrameData[25] Tile_X0Y0_FrameData[26] Tile_X0Y0_FrameData[27] Tile_X0Y0_FrameData[28]
+ Tile_X0Y0_FrameData[29] Tile_X0Y0_FrameData[2] Tile_X0Y0_FrameData[30] Tile_X0Y0_FrameData[31]
+ Tile_X0Y0_FrameData[3] Tile_X0Y0_FrameData[4] Tile_X0Y0_FrameData[5] Tile_X0Y0_FrameData[6]
+ Tile_X0Y0_FrameData[7] Tile_X0Y0_FrameData[8] Tile_X0Y0_FrameData[9] Tile_X0Y0_FrameData_O[0]
+ Tile_X0Y0_FrameData_O[10] Tile_X0Y0_FrameData_O[11] Tile_X0Y0_FrameData_O[12] Tile_X0Y0_FrameData_O[13]
+ Tile_X0Y0_FrameData_O[14] Tile_X0Y0_FrameData_O[15] Tile_X0Y0_FrameData_O[16] Tile_X0Y0_FrameData_O[17]
+ Tile_X0Y0_FrameData_O[18] Tile_X0Y0_FrameData_O[19] Tile_X0Y0_FrameData_O[1] Tile_X0Y0_FrameData_O[20]
+ Tile_X0Y0_FrameData_O[21] Tile_X0Y0_FrameData_O[22] Tile_X0Y0_FrameData_O[23] Tile_X0Y0_FrameData_O[24]
+ Tile_X0Y0_FrameData_O[25] Tile_X0Y0_FrameData_O[26] Tile_X0Y0_FrameData_O[27] Tile_X0Y0_FrameData_O[28]
+ Tile_X0Y0_FrameData_O[29] Tile_X0Y0_FrameData_O[2] Tile_X0Y0_FrameData_O[30] Tile_X0Y0_FrameData_O[31]
+ Tile_X0Y0_FrameData_O[3] Tile_X0Y0_FrameData_O[4] Tile_X0Y0_FrameData_O[5] Tile_X0Y0_FrameData_O[6]
+ Tile_X0Y0_FrameData_O[7] Tile_X0Y0_FrameData_O[8] Tile_X0Y0_FrameData_O[9] Tile_X0Y0_FrameStrobe_O[0]
+ Tile_X0Y0_FrameStrobe_O[10] Tile_X0Y0_FrameStrobe_O[11] Tile_X0Y0_FrameStrobe_O[12]
+ Tile_X0Y0_FrameStrobe_O[13] Tile_X0Y0_FrameStrobe_O[14] Tile_X0Y0_FrameStrobe_O[15]
+ Tile_X0Y0_FrameStrobe_O[16] Tile_X0Y0_FrameStrobe_O[17] Tile_X0Y0_FrameStrobe_O[18]
+ Tile_X0Y0_FrameStrobe_O[19] Tile_X0Y0_FrameStrobe_O[1] Tile_X0Y0_FrameStrobe_O[2]
+ Tile_X0Y0_FrameStrobe_O[3] Tile_X0Y0_FrameStrobe_O[4] Tile_X0Y0_FrameStrobe_O[5]
+ Tile_X0Y0_FrameStrobe_O[6] Tile_X0Y0_FrameStrobe_O[7] Tile_X0Y0_FrameStrobe_O[8]
+ Tile_X0Y0_FrameStrobe_O[9] Tile_X0Y0_N1BEG[0] Tile_X0Y0_N1BEG[1] Tile_X0Y0_N1BEG[2]
+ Tile_X0Y0_N1BEG[3] Tile_X0Y0_N2BEG[0] Tile_X0Y0_N2BEG[1] Tile_X0Y0_N2BEG[2] Tile_X0Y0_N2BEG[3]
+ Tile_X0Y0_N2BEG[4] Tile_X0Y0_N2BEG[5] Tile_X0Y0_N2BEG[6] Tile_X0Y0_N2BEG[7] Tile_X0Y0_N2BEGb[0]
+ Tile_X0Y0_N2BEGb[1] Tile_X0Y0_N2BEGb[2] Tile_X0Y0_N2BEGb[3] Tile_X0Y0_N2BEGb[4]
+ Tile_X0Y0_N2BEGb[5] Tile_X0Y0_N2BEGb[6] Tile_X0Y0_N2BEGb[7] Tile_X0Y0_N4BEG[0] Tile_X0Y0_N4BEG[10]
+ Tile_X0Y0_N4BEG[11] Tile_X0Y0_N4BEG[12] Tile_X0Y0_N4BEG[13] Tile_X0Y0_N4BEG[14]
+ Tile_X0Y0_N4BEG[15] Tile_X0Y0_N4BEG[1] Tile_X0Y0_N4BEG[2] Tile_X0Y0_N4BEG[3] Tile_X0Y0_N4BEG[4]
+ Tile_X0Y0_N4BEG[5] Tile_X0Y0_N4BEG[6] Tile_X0Y0_N4BEG[7] Tile_X0Y0_N4BEG[8] Tile_X0Y0_N4BEG[9]
+ Tile_X0Y0_S1END[0] Tile_X0Y0_S1END[1] Tile_X0Y0_S1END[2] Tile_X0Y0_S1END[3] Tile_X0Y0_S2END[0]
+ Tile_X0Y0_S2END[1] Tile_X0Y0_S2END[2] Tile_X0Y0_S2END[3] Tile_X0Y0_S2END[4] Tile_X0Y0_S2END[5]
+ Tile_X0Y0_S2END[6] Tile_X0Y0_S2END[7] Tile_X0Y0_S2MID[0] Tile_X0Y0_S2MID[1] Tile_X0Y0_S2MID[2]
+ Tile_X0Y0_S2MID[3] Tile_X0Y0_S2MID[4] Tile_X0Y0_S2MID[5] Tile_X0Y0_S2MID[6] Tile_X0Y0_S2MID[7]
+ Tile_X0Y0_S4END[0] Tile_X0Y0_S4END[10] Tile_X0Y0_S4END[11] Tile_X0Y0_S4END[12] Tile_X0Y0_S4END[13]
+ Tile_X0Y0_S4END[14] Tile_X0Y0_S4END[15] Tile_X0Y0_S4END[1] Tile_X0Y0_S4END[2] Tile_X0Y0_S4END[3]
+ Tile_X0Y0_S4END[4] Tile_X0Y0_S4END[5] Tile_X0Y0_S4END[6] Tile_X0Y0_S4END[7] Tile_X0Y0_S4END[8]
+ Tile_X0Y0_S4END[9] Tile_X0Y0_UserCLKo Tile_X0Y0_W1BEG[0] Tile_X0Y0_W1BEG[1] Tile_X0Y0_W1BEG[2]
+ Tile_X0Y0_W1BEG[3] Tile_X0Y0_W2BEG[0] Tile_X0Y0_W2BEG[1] Tile_X0Y0_W2BEG[2] Tile_X0Y0_W2BEG[3]
+ Tile_X0Y0_W2BEG[4] Tile_X0Y0_W2BEG[5] Tile_X0Y0_W2BEG[6] Tile_X0Y0_W2BEG[7] Tile_X0Y0_W2BEGb[0]
+ Tile_X0Y0_W2BEGb[1] Tile_X0Y0_W2BEGb[2] Tile_X0Y0_W2BEGb[3] Tile_X0Y0_W2BEGb[4]
+ Tile_X0Y0_W2BEGb[5] Tile_X0Y0_W2BEGb[6] Tile_X0Y0_W2BEGb[7] Tile_X0Y0_W6BEG[0] Tile_X0Y0_W6BEG[10]
+ Tile_X0Y0_W6BEG[11] Tile_X0Y0_W6BEG[1] Tile_X0Y0_W6BEG[2] Tile_X0Y0_W6BEG[3] Tile_X0Y0_W6BEG[4]
+ Tile_X0Y0_W6BEG[5] Tile_X0Y0_W6BEG[6] Tile_X0Y0_W6BEG[7] Tile_X0Y0_W6BEG[8] Tile_X0Y0_W6BEG[9]
+ Tile_X0Y0_WW4BEG[0] Tile_X0Y0_WW4BEG[10] Tile_X0Y0_WW4BEG[11] Tile_X0Y0_WW4BEG[12]
+ Tile_X0Y0_WW4BEG[13] Tile_X0Y0_WW4BEG[14] Tile_X0Y0_WW4BEG[15] Tile_X0Y0_WW4BEG[1]
+ Tile_X0Y0_WW4BEG[2] Tile_X0Y0_WW4BEG[3] Tile_X0Y0_WW4BEG[4] Tile_X0Y0_WW4BEG[5]
+ Tile_X0Y0_WW4BEG[6] Tile_X0Y0_WW4BEG[7] Tile_X0Y0_WW4BEG[8] Tile_X0Y0_WW4BEG[9]
+ Tile_X0Y1_E1END[0] Tile_X0Y1_E1END[1] Tile_X0Y1_E1END[2] Tile_X0Y1_E1END[3] Tile_X0Y1_E2END[0]
+ Tile_X0Y1_E2END[1] Tile_X0Y1_E2END[2] Tile_X0Y1_E2END[3] Tile_X0Y1_E2END[4] Tile_X0Y1_E2END[5]
+ Tile_X0Y1_E2END[6] Tile_X0Y1_E2END[7] Tile_X0Y1_E2MID[0] Tile_X0Y1_E2MID[1] Tile_X0Y1_E2MID[2]
+ Tile_X0Y1_E2MID[3] Tile_X0Y1_E2MID[4] Tile_X0Y1_E2MID[5] Tile_X0Y1_E2MID[6] Tile_X0Y1_E2MID[7]
+ Tile_X0Y1_E6END[0] Tile_X0Y1_E6END[10] Tile_X0Y1_E6END[11] Tile_X0Y1_E6END[1] Tile_X0Y1_E6END[2]
+ Tile_X0Y1_E6END[3] Tile_X0Y1_E6END[4] Tile_X0Y1_E6END[5] Tile_X0Y1_E6END[6] Tile_X0Y1_E6END[7]
+ Tile_X0Y1_E6END[8] Tile_X0Y1_E6END[9] Tile_X0Y1_EE4END[0] Tile_X0Y1_EE4END[10] Tile_X0Y1_EE4END[11]
+ Tile_X0Y1_EE4END[12] Tile_X0Y1_EE4END[13] Tile_X0Y1_EE4END[14] Tile_X0Y1_EE4END[15]
+ Tile_X0Y1_EE4END[1] Tile_X0Y1_EE4END[2] Tile_X0Y1_EE4END[3] Tile_X0Y1_EE4END[4]
+ Tile_X0Y1_EE4END[5] Tile_X0Y1_EE4END[6] Tile_X0Y1_EE4END[7] Tile_X0Y1_EE4END[8]
+ Tile_X0Y1_EE4END[9] Tile_X0Y1_FrameData[0] Tile_X0Y1_FrameData[10] Tile_X0Y1_FrameData[11]
+ Tile_X0Y1_FrameData[12] Tile_X0Y1_FrameData[13] Tile_X0Y1_FrameData[14] Tile_X0Y1_FrameData[15]
+ Tile_X0Y1_FrameData[16] Tile_X0Y1_FrameData[17] Tile_X0Y1_FrameData[18] Tile_X0Y1_FrameData[19]
+ Tile_X0Y1_FrameData[1] Tile_X0Y1_FrameData[20] Tile_X0Y1_FrameData[21] Tile_X0Y1_FrameData[22]
+ Tile_X0Y1_FrameData[23] Tile_X0Y1_FrameData[24] Tile_X0Y1_FrameData[25] Tile_X0Y1_FrameData[26]
+ Tile_X0Y1_FrameData[27] Tile_X0Y1_FrameData[28] Tile_X0Y1_FrameData[29] Tile_X0Y1_FrameData[2]
+ Tile_X0Y1_FrameData[30] Tile_X0Y1_FrameData[31] Tile_X0Y1_FrameData[3] Tile_X0Y1_FrameData[4]
+ Tile_X0Y1_FrameData[5] Tile_X0Y1_FrameData[6] Tile_X0Y1_FrameData[7] Tile_X0Y1_FrameData[8]
+ Tile_X0Y1_FrameData[9] Tile_X0Y1_FrameData_O[0] Tile_X0Y1_FrameData_O[10] Tile_X0Y1_FrameData_O[11]
+ Tile_X0Y1_FrameData_O[12] Tile_X0Y1_FrameData_O[13] Tile_X0Y1_FrameData_O[14] Tile_X0Y1_FrameData_O[15]
+ Tile_X0Y1_FrameData_O[16] Tile_X0Y1_FrameData_O[17] Tile_X0Y1_FrameData_O[18] Tile_X0Y1_FrameData_O[19]
+ Tile_X0Y1_FrameData_O[1] Tile_X0Y1_FrameData_O[20] Tile_X0Y1_FrameData_O[21] Tile_X0Y1_FrameData_O[22]
+ Tile_X0Y1_FrameData_O[23] Tile_X0Y1_FrameData_O[24] Tile_X0Y1_FrameData_O[25] Tile_X0Y1_FrameData_O[26]
+ Tile_X0Y1_FrameData_O[27] Tile_X0Y1_FrameData_O[28] Tile_X0Y1_FrameData_O[29] Tile_X0Y1_FrameData_O[2]
+ Tile_X0Y1_FrameData_O[30] Tile_X0Y1_FrameData_O[31] Tile_X0Y1_FrameData_O[3] Tile_X0Y1_FrameData_O[4]
+ Tile_X0Y1_FrameData_O[5] Tile_X0Y1_FrameData_O[6] Tile_X0Y1_FrameData_O[7] Tile_X0Y1_FrameData_O[8]
+ Tile_X0Y1_FrameData_O[9] Tile_X0Y1_FrameStrobe[0] Tile_X0Y1_FrameStrobe[10] Tile_X0Y1_FrameStrobe[11]
+ Tile_X0Y1_FrameStrobe[12] Tile_X0Y1_FrameStrobe[13] Tile_X0Y1_FrameStrobe[14] Tile_X0Y1_FrameStrobe[15]
+ Tile_X0Y1_FrameStrobe[16] Tile_X0Y1_FrameStrobe[17] Tile_X0Y1_FrameStrobe[18] Tile_X0Y1_FrameStrobe[19]
+ Tile_X0Y1_FrameStrobe[1] Tile_X0Y1_FrameStrobe[2] Tile_X0Y1_FrameStrobe[3] Tile_X0Y1_FrameStrobe[4]
+ Tile_X0Y1_FrameStrobe[5] Tile_X0Y1_FrameStrobe[6] Tile_X0Y1_FrameStrobe[7] Tile_X0Y1_FrameStrobe[8]
+ Tile_X0Y1_FrameStrobe[9] Tile_X0Y1_N1END[0] Tile_X0Y1_N1END[1] Tile_X0Y1_N1END[2]
+ Tile_X0Y1_N1END[3] Tile_X0Y1_N2END[0] Tile_X0Y1_N2END[1] Tile_X0Y1_N2END[2] Tile_X0Y1_N2END[3]
+ Tile_X0Y1_N2END[4] Tile_X0Y1_N2END[5] Tile_X0Y1_N2END[6] Tile_X0Y1_N2END[7] Tile_X0Y1_N2MID[0]
+ Tile_X0Y1_N2MID[1] Tile_X0Y1_N2MID[2] Tile_X0Y1_N2MID[3] Tile_X0Y1_N2MID[4] Tile_X0Y1_N2MID[5]
+ Tile_X0Y1_N2MID[6] Tile_X0Y1_N2MID[7] Tile_X0Y1_N4END[0] Tile_X0Y1_N4END[10] Tile_X0Y1_N4END[11]
+ Tile_X0Y1_N4END[12] Tile_X0Y1_N4END[13] Tile_X0Y1_N4END[14] Tile_X0Y1_N4END[15]
+ Tile_X0Y1_N4END[1] Tile_X0Y1_N4END[2] Tile_X0Y1_N4END[3] Tile_X0Y1_N4END[4] Tile_X0Y1_N4END[5]
+ Tile_X0Y1_N4END[6] Tile_X0Y1_N4END[7] Tile_X0Y1_N4END[8] Tile_X0Y1_N4END[9] Tile_X0Y1_S1BEG[0]
+ Tile_X0Y1_S1BEG[1] Tile_X0Y1_S1BEG[2] Tile_X0Y1_S1BEG[3] Tile_X0Y1_S2BEG[0] Tile_X0Y1_S2BEG[1]
+ Tile_X0Y1_S2BEG[2] Tile_X0Y1_S2BEG[3] Tile_X0Y1_S2BEG[4] Tile_X0Y1_S2BEG[5] Tile_X0Y1_S2BEG[6]
+ Tile_X0Y1_S2BEG[7] Tile_X0Y1_S2BEGb[0] Tile_X0Y1_S2BEGb[1] Tile_X0Y1_S2BEGb[2] Tile_X0Y1_S2BEGb[3]
+ Tile_X0Y1_S2BEGb[4] Tile_X0Y1_S2BEGb[5] Tile_X0Y1_S2BEGb[6] Tile_X0Y1_S2BEGb[7]
+ Tile_X0Y1_S4BEG[0] Tile_X0Y1_S4BEG[10] Tile_X0Y1_S4BEG[11] Tile_X0Y1_S4BEG[12] Tile_X0Y1_S4BEG[13]
+ Tile_X0Y1_S4BEG[14] Tile_X0Y1_S4BEG[15] Tile_X0Y1_S4BEG[1] Tile_X0Y1_S4BEG[2] Tile_X0Y1_S4BEG[3]
+ Tile_X0Y1_S4BEG[4] Tile_X0Y1_S4BEG[5] Tile_X0Y1_S4BEG[6] Tile_X0Y1_S4BEG[7] Tile_X0Y1_S4BEG[8]
+ Tile_X0Y1_S4BEG[9] Tile_X0Y1_UserCLK Tile_X0Y1_W1BEG[0] Tile_X0Y1_W1BEG[1] Tile_X0Y1_W1BEG[2]
+ Tile_X0Y1_W1BEG[3] Tile_X0Y1_W2BEG[0] Tile_X0Y1_W2BEG[1] Tile_X0Y1_W2BEG[2] Tile_X0Y1_W2BEG[3]
+ Tile_X0Y1_W2BEG[4] Tile_X0Y1_W2BEG[5] Tile_X0Y1_W2BEG[6] Tile_X0Y1_W2BEG[7] Tile_X0Y1_W2BEGb[0]
+ Tile_X0Y1_W2BEGb[1] Tile_X0Y1_W2BEGb[2] Tile_X0Y1_W2BEGb[3] Tile_X0Y1_W2BEGb[4]
+ Tile_X0Y1_W2BEGb[5] Tile_X0Y1_W2BEGb[6] Tile_X0Y1_W2BEGb[7] Tile_X0Y1_W6BEG[0] Tile_X0Y1_W6BEG[10]
+ Tile_X0Y1_W6BEG[11] Tile_X0Y1_W6BEG[1] Tile_X0Y1_W6BEG[2] Tile_X0Y1_W6BEG[3] Tile_X0Y1_W6BEG[4]
+ Tile_X0Y1_W6BEG[5] Tile_X0Y1_W6BEG[6] Tile_X0Y1_W6BEG[7] Tile_X0Y1_W6BEG[8] Tile_X0Y1_W6BEG[9]
+ Tile_X0Y1_WW4BEG[0] Tile_X0Y1_WW4BEG[10] Tile_X0Y1_WW4BEG[11] Tile_X0Y1_WW4BEG[12]
+ Tile_X0Y1_WW4BEG[13] Tile_X0Y1_WW4BEG[14] Tile_X0Y1_WW4BEG[15] Tile_X0Y1_WW4BEG[1]
+ Tile_X0Y1_WW4BEG[2] Tile_X0Y1_WW4BEG[3] Tile_X0Y1_WW4BEG[4] Tile_X0Y1_WW4BEG[5]
+ Tile_X0Y1_WW4BEG[6] Tile_X0Y1_WW4BEG[7] Tile_X0Y1_WW4BEG[8] Tile_X0Y1_WW4BEG[9]
+ VGND VPWR WEN_SRAM
X_0367_ Tile_X0Y0_IHP_SRAM_top.Inst_IHP_SRAM_top_ConfigMem.Inst_frame9_bit24.Q net35
+ net61 Tile_X0Y0_IHP_SRAM_top.Inst_IHP_SRAM_top_switch_matrix.J_NS4_BEG13 _0059_
+ Tile_X0Y0_IHP_SRAM_top.Inst_IHP_SRAM_top_ConfigMem.Inst_frame9_bit25.Q Tile_X0Y0_IHP_SRAM_top.Inst_IHP_SRAM_top_switch_matrix.N1BEG1
+ VPWR VGND sg13g2_mux4_1
X_0298_ VPWR _0001_ net151 VGND sg13g2_inv_1
XFILLER_89_100 VPWR VGND sg13g2_decap_8
XFILLER_117_88 VPWR VGND sg13g2_decap_8
XFILLER_26_63 VPWR VGND sg13g2_fill_1
XFILLER_3_34 VPWR VGND sg13g2_decap_8
XFILLER_67_70 VPWR VGND sg13g2_fill_1
X_1270_ net199 net706 Tile_X0Y1_IHP_SRAM_bot.Inst_IHP_SRAM_bot_ConfigMem.Inst_frame3_bit18.Q
+ VPWR VGND sg13g2_dlhq_1
Xoutput412 net412 Tile_X0Y0_N4BEG[6] VPWR VGND sg13g2_buf_1
Xoutput401 net401 Tile_X0Y0_N4BEG[10] VPWR VGND sg13g2_buf_1
X_0985_ net786 net710 Tile_X0Y0_IHP_SRAM_top.Inst_IHP_SRAM_top_ConfigMem.Inst_frame3_bit5.Q
+ VPWR VGND sg13g2_dlhq_1
X_1606_ Tile_X0Y0_IHP_SRAM_top.Inst_IHP_SRAM_top_switch_matrix.WW4BEG11 net451 VPWR
+ VGND sg13g2_buf_1
Xoutput434 net434 Tile_X0Y0_W2BEGb[5] VPWR VGND sg13g2_buf_1
Xoutput423 net423 Tile_X0Y0_W2BEG[2] VPWR VGND sg13g2_buf_1
Xoutput489 net489 Tile_X0Y1_FrameData_O[31] VPWR VGND sg13g2_buf_1
Xoutput478 net478 Tile_X0Y1_FrameData_O[21] VPWR VGND sg13g2_buf_1
Xoutput467 net467 Tile_X0Y1_FrameData_O[11] VPWR VGND sg13g2_buf_1
X_0419_ Tile_X0Y0_IHP_SRAM_top.Inst_IHP_SRAM_top_ConfigMem.Inst_frame7_bit16.Q net37
+ net46 net38 net623 Tile_X0Y0_IHP_SRAM_top.Inst_IHP_SRAM_top_ConfigMem.Inst_frame7_bit17.Q
+ Tile_X0Y0_IHP_SRAM_top.Inst_IHP_SRAM_top_switch_matrix.S2BEG7 VPWR VGND sg13g2_mux4_1
X_1537_ Tile_X0Y0_IHP_SRAM_top.Inst_IHP_SRAM_top_switch_matrix.N2BEG7 net391 VPWR
+ VGND sg13g2_buf_1
Xoutput445 net445 Tile_X0Y0_W6BEG[6] VPWR VGND sg13g2_buf_1
Xoutput456 net456 Tile_X0Y0_WW4BEG[1] VPWR VGND sg13g2_buf_1
X_1468_ net778 net643 Tile_X0Y1_IHP_SRAM_bot.Inst_IHP_SRAM_bot_ConfigMem.Inst_frame9_bit12.Q
+ VPWR VGND sg13g2_dlhq_1
X_1399_ net773 net662 Tile_X0Y1_IHP_SRAM_bot.Inst_IHP_SRAM_bot_ConfigMem.Inst_frame7_bit17.Q
+ VPWR VGND sg13g2_dlhq_1
XFILLER_88_25 VPWR VGND sg13g2_fill_1
Xfanout672 net673 net672 VPWR VGND sg13g2_buf_1
Xfanout683 net684 net683 VPWR VGND sg13g2_buf_1
Xfanout661 net668 net661 VPWR VGND sg13g2_buf_1
Xfanout694 net695 net694 VPWR VGND sg13g2_buf_1
Xfanout650 net651 net650 VPWR VGND sg13g2_buf_1
X_0770_ VGND VPWR _0026_ _0210_ _0211_ Tile_X0Y1_IHP_SRAM_bot.Inst_IHP_SRAM_bot_ConfigMem.Inst_frame8_bit13.Q
+ sg13g2_a21oi_1
XFILLER_78_91 VPWR VGND sg13g2_fill_1
X_1253_ net215 net717 Tile_X0Y1_IHP_SRAM_bot.Inst_IHP_SRAM_bot_ConfigMem.Inst_frame2_bit3.Q
+ VPWR VGND sg13g2_dlhq_1
X_1322_ net758 net682 Tile_X0Y1_IHP_SRAM_bot.Inst_IHP_SRAM_bot_ConfigMem.Inst_frame5_bit30.Q
+ VPWR VGND sg13g2_dlhq_1
XFILLER_91_172 VPWR VGND sg13g2_fill_2
XFILLER_91_150 VPWR VGND sg13g2_fill_1
X_1184_ net220 net742 Tile_X0Y1_IHP_SRAM_bot.Inst_IHP_SRAM_bot_ConfigMem.Inst_frame0_bit8.Q
+ VPWR VGND sg13g2_dlhq_1
X_0968_ net799 net709 Tile_X0Y0_IHP_SRAM_top.Inst_IHP_SRAM_top_ConfigMem.Inst_frame3_bit22.Q
+ VPWR VGND sg13g2_dlhq_1
X_0899_ net794 net733 Tile_X0Y0_IHP_SRAM_top.Inst_IHP_SRAM_top_ConfigMem.Inst_frame1_bit27.Q
+ VPWR VGND sg13g2_dlhq_1
Xoutput253 net253 ADDR_SRAM2 VPWR VGND sg13g2_buf_1
Xoutput275 net275 BM_SRAM21 VPWR VGND sg13g2_buf_1
Xoutput264 net264 BM_SRAM11 VPWR VGND sg13g2_buf_1
Xoutput286 net286 BM_SRAM31 VPWR VGND sg13g2_buf_1
Xoutput297 net297 DIN_SRAM11 VPWR VGND sg13g2_buf_1
XFILLER_2_154 VPWR VGND sg13g2_decap_8
XFILLER_64_60 VPWR VGND sg13g2_decap_4
XFILLER_48_72 VPWR VGND sg13g2_fill_1
XFILLER_119_108 VPWR VGND sg13g2_decap_8
X_0822_ _0258_ Tile_X0Y1_IHP_SRAM_bot.Inst_IHP_SRAM_bot_ConfigMem.Inst_frame1_bit2.Q
+ Tile_X0Y1_IHP_SRAM_bot.Inst_IHP_SRAM_bot_ConfigMem.Inst_frame1_bit1.Q VPWR VGND
+ sg13g2_nand2b_1
X_0753_ VGND VPWR _0022_ _0194_ _0196_ _0195_ sg13g2_a21oi_1
X_0684_ _0162_ VPWR net251 VGND Tile_X0Y1_IHP_SRAM_bot.Inst_IHP_SRAM_bot_ConfigMem.Inst_frame4_bit19.Q
+ _0164_ sg13g2_o21ai_1
X_1305_ net775 net693 Tile_X0Y1_IHP_SRAM_bot.Inst_IHP_SRAM_bot_ConfigMem.Inst_frame4_bit15.Q
+ VPWR VGND sg13g2_dlhq_1
XFILLER_29_0 VPWR VGND sg13g2_fill_1
X_1236_ net202 net715 Tile_X0Y1_IHP_SRAM_bot.Inst_IHP_SRAM_bot_ConfigMem.Inst_frame2_bit20.Q
+ VPWR VGND sg13g2_dlhq_1
X_1098_ net801 net663 Tile_X0Y0_IHP_SRAM_top.Inst_IHP_SRAM_top_ConfigMem.Inst_frame7_bit20.Q
+ VPWR VGND sg13g2_dlhq_1
X_1167_ net207 net742 Tile_X0Y1_IHP_SRAM_bot.Inst_IHP_SRAM_bot_ConfigMem.Inst_frame0_bit25.Q
+ VPWR VGND sg13g2_dlhq_1
XFILLER_118_174 VPWR VGND sg13g2_decap_8
XFILLER_109_12 VPWR VGND sg13g2_fill_2
XFILLER_109_78 VPWR VGND sg13g2_fill_2
XFILLER_70_164 VPWR VGND sg13g2_fill_1
XFILLER_34_85 VPWR VGND sg13g2_fill_2
X_1021_ net802 net699 Tile_X0Y0_IHP_SRAM_top.Inst_IHP_SRAM_top_ConfigMem.Inst_frame4_bit1.Q
+ VPWR VGND sg13g2_dlhq_1
X_0805_ Tile_X0Y1_IHP_SRAM_bot.Inst_IHP_SRAM_bot_ConfigMem.Inst_frame7_bit13.Q VPWR
+ _0243_ VGND Tile_X0Y1_IHP_SRAM_bot.Inst_IHP_SRAM_bot_ConfigMem.Inst_frame7_bit12.Q
+ Tile_X0Y1_IHP_SRAM_bot.Inst_IHP_SRAM_bot_switch_matrix.J_NS4_BEG14 sg13g2_o21ai_1
X_0598_ Tile_X0Y0_IHP_SRAM_top.Inst_IHP_SRAM_top_ConfigMem.Inst_frame7_bit28.Q VPWR
+ _0153_ VGND Tile_X0Y0_IHP_SRAM_top.Inst_IHP_SRAM_top_ConfigMem.Inst_frame7_bit27.Q
+ Tile_X0Y0_IHP_SRAM_top.Inst_IHP_SRAM_top_switch_matrix.J_NS4_BEG15 sg13g2_o21ai_1
X_0667_ Tile_X0Y1_IHP_SRAM_bot.Inst_IHP_SRAM_bot_ConfigMem.Inst_frame1_bit8.Q net223
+ net243 _0088_ net138 Tile_X0Y1_IHP_SRAM_bot.Inst_IHP_SRAM_bot_ConfigMem.Inst_frame1_bit9.Q
+ _0161_ VPWR VGND sg13g2_mux4_1
X_0736_ net142 net174 Tile_X0Y1_IHP_SRAM_bot.Inst_IHP_SRAM_bot_ConfigMem.Inst_frame8_bit2.Q
+ _0180_ VPWR VGND sg13g2_mux2_1
X_1219_ net217 net728 Tile_X0Y1_IHP_SRAM_bot.Inst_IHP_SRAM_bot_ConfigMem.Inst_frame1_bit5.Q
+ VPWR VGND sg13g2_dlhq_1
XFILLER_52_120 VPWR VGND sg13g2_decap_8
XFILLER_121_136 VPWR VGND sg13g2_decap_8
XFILLER_106_199 VPWR VGND sg13g2_fill_2
XFILLER_106_177 VPWR VGND sg13g2_fill_1
XFILLER_29_96 VPWR VGND sg13g2_fill_1
XFILLER_77_8 VPWR VGND sg13g2_fill_1
XFILLER_61_94 VPWR VGND sg13g2_fill_1
X_0452_ Tile_X0Y0_IHP_SRAM_top.Inst_IHP_SRAM_top_ConfigMem.Inst_frame5_bit6.Q net10
+ net23 Tile_X0Y0_IHP_SRAM_top.Inst_IHP_SRAM_top_switch_matrix.J_NS4_BEG15 Tile_X0Y0_IHP_SRAM_top.Inst_IHP_SRAM_top_switch_matrix.J_NS2_BEG7
+ Tile_X0Y0_IHP_SRAM_top.Inst_IHP_SRAM_top_ConfigMem.Inst_frame5_bit7.Q Tile_X0Y0_IHP_SRAM_top.Inst_IHP_SRAM_top_switch_matrix.WW4BEG0
+ VPWR VGND sg13g2_mux4_1
X_1570_ Tile_X0Y0_IHP_SRAM_top.Inst_IHP_SRAM_top_switch_matrix.W2BEG3 net424 VPWR
+ VGND sg13g2_buf_1
X_0521_ Tile_X0Y0_IHP_SRAM_top.Inst_IHP_SRAM_top_ConfigMem.Inst_frame2_bit22.Q net34
+ net76 net69 Tile_X0Y0_IHP_SRAM_top.Inst_IHP_SRAM_top_switch_matrix.J_NS4_BEG12 Tile_X0Y0_IHP_SRAM_top.Inst_IHP_SRAM_top_ConfigMem.Inst_frame2_bit23.Q
+ net282 VPWR VGND sg13g2_mux4_1
XFILLER_6_45 VPWR VGND sg13g2_decap_8
X_0383_ _0076_ _0074_ Tile_X0Y1_IHP_SRAM_bot.Inst_IHP_SRAM_bot_ConfigMem.Inst_frame0_bit30.Q
+ VPWR VGND sg13g2_nand2b_1
X_1004_ net804 net698 Tile_X0Y0_IHP_SRAM_top.Inst_IHP_SRAM_top_ConfigMem.Inst_frame4_bit18.Q
+ VPWR VGND sg13g2_dlhq_1
XFILLER_103_158 VPWR VGND sg13g2_fill_2
X_1699_ Tile_X0Y1_IHP_SRAM_bot.Inst_IHP_SRAM_bot_switch_matrix.W6BEG0 net553 VPWR
+ VGND sg13g2_buf_1
X_0719_ Tile_X0Y1_IHP_SRAM_bot.Inst_IHP_SRAM_bot_ConfigMem.Inst_frame2_bit0.Q net182
+ net175 net166 _0159_ Tile_X0Y1_IHP_SRAM_bot.Inst_IHP_SRAM_bot_ConfigMem.Inst_frame2_bit1.Q
+ net306 VPWR VGND sg13g2_mux4_1
XFILLER_15_65 VPWR VGND sg13g2_fill_2
XFILLER_31_64 VPWR VGND sg13g2_fill_2
Xinput120 Tile_X0Y0_S2END[2] net120 VPWR VGND sg13g2_buf_1
Xinput131 Tile_X0Y0_S2MID[5] net131 VPWR VGND sg13g2_buf_1
Xinput153 Tile_X0Y1_E2END[7] net153 VPWR VGND sg13g2_buf_1
Xinput142 Tile_X0Y1_E1END[0] net142 VPWR VGND sg13g2_buf_1
Xinput186 Tile_X0Y1_EE4END[6] net186 VPWR VGND sg13g2_buf_1
Xinput175 Tile_X0Y1_EE4END[10] net175 VPWR VGND sg13g2_buf_1
Xinput164 Tile_X0Y1_E6END[11] net164 VPWR VGND sg13g2_buf_1
Xinput197 Tile_X0Y1_FrameData[16] net197 VPWR VGND sg13g2_buf_1
XFILLER_31_123 VPWR VGND sg13g2_decap_4
XFILLER_68_4 VPWR VGND sg13g2_fill_2
X_1622_ net779 net467 VPWR VGND sg13g2_buf_1
X_1553_ Tile_X0Y1_N4END[15] net413 VPWR VGND sg13g2_buf_1
X_1484_ net812 net329 VPWR VGND sg13g2_buf_1
X_0504_ Tile_X0Y0_IHP_SRAM_top.Inst_IHP_SRAM_top_ConfigMem.Inst_frame3_bit20.Q net75
+ net68 net56 Tile_X0Y0_IHP_SRAM_top.Inst_IHP_SRAM_top_switch_matrix.J_NS4_BEG11 Tile_X0Y0_IHP_SRAM_top.Inst_IHP_SRAM_top_ConfigMem.Inst_frame3_bit21.Q
+ net314 VPWR VGND sg13g2_mux4_1
X_0435_ Tile_X0Y0_IHP_SRAM_top.Inst_IHP_SRAM_top_ConfigMem.Inst_frame6_bit5.Q Tile_X0Y0_IHP_SRAM_top.Inst_IHP_SRAM_top_switch_matrix.N1END3
+ net11 net117 net15 Tile_X0Y0_IHP_SRAM_top.Inst_IHP_SRAM_top_ConfigMem.Inst_frame6_bit4.Q
+ Tile_X0Y0_IHP_SRAM_top.Inst_IHP_SRAM_top_switch_matrix.W1BEG3 VPWR VGND sg13g2_mux4_1
X_0366_ Tile_X0Y0_IHP_SRAM_top.Inst_IHP_SRAM_top_ConfigMem.Inst_frame0_bit2.Q Tile_X0Y0_IHP_SRAM_top.Inst_IHP_SRAM_top_switch_matrix.N1END1
+ net248 net115 net135 Tile_X0Y0_IHP_SRAM_top.Inst_IHP_SRAM_top_ConfigMem.Inst_frame0_bit3.Q
+ Tile_X0Y0_IHP_SRAM_top.Inst_IHP_SRAM_top_switch_matrix.J_NS4_BEG13 VPWR VGND sg13g2_mux4_1
X_0297_ VPWR _0000_ net157 VGND sg13g2_inv_1
XFILLER_117_67 VPWR VGND sg13g2_decap_8
Xfanout810 net85 net810 VPWR VGND sg13g2_buf_1
X_0984_ net785 net709 Tile_X0Y0_IHP_SRAM_top.Inst_IHP_SRAM_top_ConfigMem.Inst_frame3_bit6.Q
+ VPWR VGND sg13g2_dlhq_1
Xoutput402 net402 Tile_X0Y0_N4BEG[11] VPWR VGND sg13g2_buf_1
Xoutput413 net413 Tile_X0Y0_N4BEG[7] VPWR VGND sg13g2_buf_1
Xoutput468 net468 Tile_X0Y1_FrameData_O[12] VPWR VGND sg13g2_buf_1
X_1536_ Tile_X0Y0_IHP_SRAM_top.Inst_IHP_SRAM_top_switch_matrix.N2BEG6 net390 VPWR
+ VGND sg13g2_buf_1
Xoutput446 net446 Tile_X0Y0_W6BEG[7] VPWR VGND sg13g2_buf_1
X_1605_ Tile_X0Y0_IHP_SRAM_top.Inst_IHP_SRAM_top_switch_matrix.WW4BEG10 net450 VPWR
+ VGND sg13g2_buf_1
Xoutput457 net457 Tile_X0Y0_WW4BEG[2] VPWR VGND sg13g2_buf_1
Xoutput435 net435 Tile_X0Y0_W2BEGb[6] VPWR VGND sg13g2_buf_1
Xoutput424 net424 Tile_X0Y0_W2BEG[3] VPWR VGND sg13g2_buf_1
XFILLER_59_0 VPWR VGND sg13g2_fill_1
Xoutput479 net479 Tile_X0Y1_FrameData_O[22] VPWR VGND sg13g2_buf_1
X_0418_ Tile_X0Y0_IHP_SRAM_top.Inst_IHP_SRAM_top_ConfigMem.Inst_frame8_bit10.Q net47
+ net39 net57 net624 Tile_X0Y0_IHP_SRAM_top.Inst_IHP_SRAM_top_ConfigMem.Inst_frame8_bit11.Q
+ Tile_X0Y0_IHP_SRAM_top.Inst_IHP_SRAM_top_switch_matrix.N2BEG6 VPWR VGND sg13g2_mux4_1
X_0349_ _0048_ VPWR _0049_ VGND Tile_X0Y1_IHP_SRAM_bot.Inst_IHP_SRAM_bot_ConfigMem.Inst_frame2_bit30.Q
+ net149 sg13g2_o21ai_1
X_1398_ net772 net659 Tile_X0Y1_IHP_SRAM_bot.Inst_IHP_SRAM_bot_ConfigMem.Inst_frame7_bit18.Q
+ VPWR VGND sg13g2_dlhq_1
X_1467_ net777 net643 Tile_X0Y1_IHP_SRAM_bot.Inst_IHP_SRAM_bot_ConfigMem.Inst_frame9_bit13.Q
+ VPWR VGND sg13g2_dlhq_1
XFILLER_12_88 VPWR VGND sg13g2_fill_1
XFILLER_10_115 VPWR VGND sg13g2_fill_1
Xfanout640 _0043_ net640 VPWR VGND sg13g2_buf_1
Xfanout651 net222 net651 VPWR VGND sg13g2_buf_1
XFILLER_85_170 VPWR VGND sg13g2_fill_2
Xfanout673 net674 net673 VPWR VGND sg13g2_buf_1
Xfanout684 net691 net684 VPWR VGND sg13g2_buf_1
Xfanout695 net696 net695 VPWR VGND sg13g2_buf_1
XFILLER_37_85 VPWR VGND sg13g2_fill_2
Xfanout662 net668 net662 VPWR VGND sg13g2_buf_1
XFILLER_53_62 VPWR VGND sg13g2_decap_4
XFILLER_83_107 VPWR VGND sg13g2_decap_8
X_1321_ net757 net682 Tile_X0Y1_IHP_SRAM_bot.Inst_IHP_SRAM_bot_ConfigMem.Inst_frame5_bit31.Q
+ VPWR VGND sg13g2_dlhq_1
X_1252_ net216 net715 Tile_X0Y1_IHP_SRAM_bot.Inst_IHP_SRAM_bot_ConfigMem.Inst_frame2_bit4.Q
+ VPWR VGND sg13g2_dlhq_1
X_1183_ net221 net742 Tile_X0Y1_IHP_SRAM_bot.Inst_IHP_SRAM_bot_ConfigMem.Inst_frame0_bit9.Q
+ VPWR VGND sg13g2_dlhq_1
X_0967_ net798 net709 Tile_X0Y0_IHP_SRAM_top.Inst_IHP_SRAM_top_ConfigMem.Inst_frame3_bit23.Q
+ VPWR VGND sg13g2_dlhq_1
X_1519_ Tile_X0Y1_FrameStrobe[13] net364 VPWR VGND sg13g2_buf_1
X_0898_ net102 net735 Tile_X0Y0_IHP_SRAM_top.Inst_IHP_SRAM_top_ConfigMem.Inst_frame1_bit28.Q
+ VPWR VGND sg13g2_dlhq_1
Xoutput298 net298 DIN_SRAM12 VPWR VGND sg13g2_buf_1
Xoutput254 net254 ADDR_SRAM3 VPWR VGND sg13g2_buf_1
Xoutput287 net287 BM_SRAM4 VPWR VGND sg13g2_buf_1
Xoutput265 net265 BM_SRAM12 VPWR VGND sg13g2_buf_1
Xoutput276 net276 BM_SRAM22 VPWR VGND sg13g2_buf_1
XFILLER_23_43 VPWR VGND sg13g2_fill_2
XFILLER_23_98 VPWR VGND sg13g2_fill_2
XFILLER_65_118 VPWR VGND sg13g2_decap_8
XFILLER_2_133 VPWR VGND sg13g2_decap_8
XFILLER_0_69 VPWR VGND sg13g2_decap_4
X_0752_ Tile_X0Y1_IHP_SRAM_bot.Inst_IHP_SRAM_bot_ConfigMem.Inst_frame8_bit7.Q VPWR
+ _0195_ VGND _0192_ _0193_ sg13g2_o21ai_1
X_0821_ Tile_X0Y1_IHP_SRAM_bot.Inst_IHP_SRAM_bot_ConfigMem.Inst_frame1_bit2.Q Tile_X0Y1_IHP_SRAM_bot.Inst_IHP_SRAM_bot_ConfigMem.Inst_frame1_bit1.Q
+ _0257_ VPWR VGND sg13g2_nor2b_1
X_0683_ VGND VPWR net146 Tile_X0Y1_IHP_SRAM_bot.Inst_IHP_SRAM_bot_ConfigMem.Inst_frame4_bit18.Q
+ _0164_ _0163_ sg13g2_a21oi_1
X_1166_ net763 net739 Tile_X0Y1_IHP_SRAM_bot.Inst_IHP_SRAM_bot_ConfigMem.Inst_frame0_bit26.Q
+ VPWR VGND sg13g2_dlhq_1
X_1304_ net774 net694 Tile_X0Y1_IHP_SRAM_bot.Inst_IHP_SRAM_bot_ConfigMem.Inst_frame4_bit16.Q
+ VPWR VGND sg13g2_dlhq_1
X_1235_ net203 net714 Tile_X0Y1_IHP_SRAM_bot.Inst_IHP_SRAM_bot_ConfigMem.Inst_frame2_bit21.Q
+ VPWR VGND sg13g2_dlhq_1
XFILLER_49_181 VPWR VGND sg13g2_fill_1
X_1097_ net800 net663 Tile_X0Y0_IHP_SRAM_top.Inst_IHP_SRAM_top_ConfigMem.Inst_frame7_bit21.Q
+ VPWR VGND sg13g2_dlhq_1
XFILLER_64_173 VPWR VGND sg13g2_decap_8
XFILLER_118_153 VPWR VGND sg13g2_decap_8
XFILLER_47_118 VPWR VGND sg13g2_fill_1
XFILLER_55_195 VPWR VGND sg13g2_fill_2
X_1020_ net791 net702 Tile_X0Y0_IHP_SRAM_top.Inst_IHP_SRAM_top_ConfigMem.Inst_frame4_bit2.Q
+ VPWR VGND sg13g2_dlhq_1
XFILLER_61_121 VPWR VGND sg13g2_fill_1
XFILLER_61_110 VPWR VGND sg13g2_decap_8
X_0735_ _0178_ VPWR _0179_ VGND _0019_ _0161_ sg13g2_o21ai_1
X_0804_ _0031_ net633 _0242_ VPWR VGND sg13g2_nor2_1
X_0597_ net623 Tile_X0Y0_IHP_SRAM_top.Inst_IHP_SRAM_top_ConfigMem.Inst_frame7_bit27.Q
+ _0152_ VPWR VGND sg13g2_nor2b_1
X_0666_ Tile_X0Y1_IHP_SRAM_bot.Inst_IHP_SRAM_bot_ConfigMem.Inst_frame5_bit22.Q net14
+ net8 _0160_ net639 Tile_X0Y1_IHP_SRAM_bot.Inst_IHP_SRAM_bot_ConfigMem.Inst_frame5_bit23.Q
+ Tile_X0Y1_IHP_SRAM_bot.Inst_IHP_SRAM_bot_switch_matrix.WW4BEG14 VPWR VGND sg13g2_mux4_1
X_1149_ net93 net654 Tile_X0Y0_IHP_SRAM_top.Inst_IHP_SRAM_top_ConfigMem.Inst_frame8_bit1.Q
+ VPWR VGND sg13g2_dlhq_1
X_1218_ net753 net728 Tile_X0Y1_IHP_SRAM_bot.Inst_IHP_SRAM_bot_ConfigMem.Inst_frame1_bit6.Q
+ VPWR VGND sg13g2_dlhq_1
XFILLER_121_115 VPWR VGND sg13g2_decap_8
XFILLER_106_101 VPWR VGND sg13g2_fill_2
XFILLER_28_151 VPWR VGND sg13g2_fill_1
XFILLER_61_51 VPWR VGND sg13g2_decap_8
X_0520_ Tile_X0Y0_IHP_SRAM_top.Inst_IHP_SRAM_top_ConfigMem.Inst_frame2_bit20.Q net75
+ net68 net56 Tile_X0Y0_IHP_SRAM_top.Inst_IHP_SRAM_top_switch_matrix.J_NS4_BEG11 Tile_X0Y0_IHP_SRAM_top.Inst_IHP_SRAM_top_ConfigMem.Inst_frame2_bit21.Q
+ net281 VPWR VGND sg13g2_mux4_1