*SPEF "ieee 1481-1999"
*DESIGN "S_EF_ADC12"
*DATE "08:51:52 Monday February 24, 2025"
*VENDOR "The OpenROAD Project"
*PROGRAM "OpenROAD"
*VERSION "87af90f72f3f9be1fdfa1d886f0dd8d8b8f34694"
*DESIGN_FLOW "NAME_SCOPE LOCAL" "PIN_CAP NONE"
*DIVIDER /
*DELIMITER :
*BUS_DELIMITER []
*T_UNIT 1 NS
*C_UNIT 1 PF
*R_UNIT 1 OHM
*L_UNIT 1 HENRY

*NAME_MAP
*1 CMP_top
*2 net218
*3 FrameData[0]
*4 FrameData[10]
*5 FrameData[11]
*6 FrameData[12]
*7 FrameData[13]
*8 FrameData[14]
*9 FrameData[15]
*10 FrameData[16]
*11 FrameData[17]
*12 FrameData[18]
*13 FrameData[19]
*14 FrameData[1]
*15 FrameData[20]
*16 FrameData[21]
*17 FrameData[22]
*18 FrameData[23]
*19 FrameData[24]
*20 FrameData[25]
*21 FrameData[26]
*22 FrameData[27]
*23 FrameData[28]
*24 FrameData[29]
*25 FrameData[2]
*26 FrameData[30]
*27 FrameData[31]
*28 FrameData[3]
*29 FrameData[4]
*30 FrameData[5]
*31 FrameData[6]
*32 FrameData[7]
*33 FrameData[8]
*34 FrameData[9]
*35 FrameData_O[0]
*36 FrameData_O[10]
*37 FrameData_O[11]
*38 FrameData_O[12]
*39 FrameData_O[13]
*40 FrameData_O[14]
*41 FrameData_O[15]
*42 FrameData_O[16]
*43 FrameData_O[17]
*44 FrameData_O[18]
*45 FrameData_O[19]
*46 FrameData_O[1]
*47 FrameData_O[20]
*48 FrameData_O[21]
*49 FrameData_O[22]
*50 FrameData_O[23]
*51 FrameData_O[24]
*52 FrameData_O[25]
*53 FrameData_O[26]
*54 FrameData_O[27]
*55 FrameData_O[28]
*56 FrameData_O[29]
*57 FrameData_O[2]
*58 FrameData_O[30]
*59 FrameData_O[31]
*60 FrameData_O[3]
*61 FrameData_O[4]
*62 FrameData_O[5]
*63 FrameData_O[6]
*64 FrameData_O[7]
*65 FrameData_O[8]
*66 FrameData_O[9]
*67 FrameStrobe[0]
*68 FrameStrobe[10]
*69 FrameStrobe[11]
*70 FrameStrobe[12]
*71 FrameStrobe[13]
*72 FrameStrobe[14]
*73 FrameStrobe[15]
*74 FrameStrobe[16]
*75 FrameStrobe[17]
*76 FrameStrobe[18]
*77 FrameStrobe[19]
*78 FrameStrobe[1]
*79 FrameStrobe[2]
*80 FrameStrobe[3]
*81 FrameStrobe[4]
*82 FrameStrobe[5]
*83 FrameStrobe[6]
*84 FrameStrobe[7]
*85 FrameStrobe[8]
*86 FrameStrobe[9]
*87 FrameStrobe_O[0]
*88 FrameStrobe_O[10]
*89 FrameStrobe_O[11]
*90 FrameStrobe_O[12]
*91 FrameStrobe_O[13]
*92 FrameStrobe_O[14]
*93 FrameStrobe_O[15]
*94 FrameStrobe_O[16]
*95 FrameStrobe_O[17]
*96 FrameStrobe_O[18]
*97 FrameStrobe_O[19]
*98 FrameStrobe_O[1]
*99 FrameStrobe_O[2]
*100 FrameStrobe_O[3]
*101 FrameStrobe_O[4]
*102 FrameStrobe_O[5]
*103 FrameStrobe_O[6]
*104 FrameStrobe_O[7]
*105 FrameStrobe_O[8]
*106 FrameStrobe_O[9]
*107 HOLD_top
*108 N1BEG[0]
*109 N1BEG[1]
*110 N1BEG[2]
*111 N1BEG[3]
*112 N2BEG[0]
*113 N2BEG[1]
*114 N2BEG[2]
*115 N2BEG[3]
*116 N2BEG[4]
*117 N2BEG[5]
*118 N2BEG[6]
*119 N2BEG[7]
*120 N2BEGb[0]
*121 N2BEGb[1]
*122 N2BEGb[2]
*123 N2BEGb[3]
*124 N2BEGb[4]
*125 N2BEGb[5]
*126 N2BEGb[6]
*127 N2BEGb[7]
*128 N4BEG[0]
*129 N4BEG[10]
*130 N4BEG[11]
*131 N4BEG[12]
*132 N4BEG[13]
*133 N4BEG[14]
*134 N4BEG[15]
*135 N4BEG[1]
*136 N4BEG[2]
*137 N4BEG[3]
*138 N4BEG[4]
*139 N4BEG[5]
*140 N4BEG[6]
*141 N4BEG[7]
*142 N4BEG[8]
*143 N4BEG[9]
*144 NN4BEG[0]
*145 NN4BEG[10]
*146 NN4BEG[11]
*147 NN4BEG[12]
*148 NN4BEG[13]
*149 NN4BEG[14]
*150 NN4BEG[15]
*151 NN4BEG[1]
*152 NN4BEG[2]
*153 NN4BEG[3]
*154 NN4BEG[4]
*155 NN4BEG[5]
*156 NN4BEG[6]
*157 NN4BEG[7]
*158 NN4BEG[8]
*159 NN4BEG[9]
*160 RESET_top
*161 S1END[0]
*162 S1END[1]
*163 S1END[2]
*164 S1END[3]
*165 S2END[0]
*166 S2END[1]
*167 S2END[2]
*168 S2END[3]
*169 S2END[4]
*170 S2END[5]
*171 S2END[6]
*172 S2END[7]
*173 S2MID[0]
*174 S2MID[1]
*175 S2MID[2]
*176 S2MID[3]
*177 S2MID[4]
*178 S2MID[5]
*179 S2MID[6]
*180 S2MID[7]
*181 S4END[0]
*182 S4END[10]
*183 S4END[11]
*184 S4END[12]
*185 S4END[13]
*186 S4END[14]
*187 S4END[15]
*188 S4END[1]
*189 S4END[2]
*190 S4END[3]
*191 S4END[4]
*192 S4END[5]
*193 S4END[6]
*194 S4END[7]
*195 S4END[8]
*196 S4END[9]
*197 SS4END[0]
*198 SS4END[10]
*199 SS4END[11]
*200 SS4END[12]
*201 SS4END[13]
*202 SS4END[14]
*203 SS4END[15]
*204 SS4END[1]
*205 SS4END[2]
*206 SS4END[3]
*207 SS4END[4]
*208 SS4END[5]
*209 SS4END[6]
*210 SS4END[7]
*211 SS4END[8]
*212 SS4END[9]
*213 UserCLK
*214 UserCLKo
*215 VALUE_top0
*216 VALUE_top1
*217 VALUE_top10
*218 VALUE_top11
*219 VALUE_top2
*220 VALUE_top3
*221 VALUE_top4
*222 VALUE_top5
*223 VALUE_top6
*224 VALUE_top7
*225 VALUE_top8
*226 VALUE_top9
*229 Inst_EF_ADC12\.VALID
*230 Inst_EF_ADC12\.curr_state\[0\]
*231 Inst_EF_ADC12\.curr_state\[1\]
*232 Inst_EF_ADC12\.curr_state\[2\]
*233 Inst_EF_ADC12\.curr_state\[3\]
*234 Inst_EF_ADC12\.curr_state\[5\]
*235 Inst_EF_ADC12\.next_bit\[0\]
*236 Inst_EF_ADC12\.next_bit\[10\]
*237 Inst_EF_ADC12\.next_bit\[1\]
*238 Inst_EF_ADC12\.next_bit\[2\]
*239 Inst_EF_ADC12\.next_bit\[3\]
*240 Inst_EF_ADC12\.next_bit\[4\]
*241 Inst_EF_ADC12\.next_bit\[5\]
*242 Inst_EF_ADC12\.next_bit\[6\]
*243 Inst_EF_ADC12\.next_bit\[7\]
*244 Inst_EF_ADC12\.next_bit\[8\]
*245 Inst_EF_ADC12\.next_bit\[9\]
*246 Inst_EF_ADC12\.sample_counter\[0\]
*247 Inst_EF_ADC12\.sample_counter\[1\]
*248 Inst_EF_ADC12\.sample_counter\[2\]
*249 Inst_EF_ADC12\.sample_counter\[3\]
*250 Inst_EF_ADC12\.shift_value\[0\]
*251 Inst_S_EF_ADC12_ConfigMem\.Inst_frame0_bit0\.Q
*252 Inst_S_EF_ADC12_ConfigMem\.Inst_frame0_bit1\.Q
*253 Inst_S_EF_ADC12_ConfigMem\.Inst_frame0_bit10\.Q
*254 Inst_S_EF_ADC12_ConfigMem\.Inst_frame0_bit11\.Q
*255 Inst_S_EF_ADC12_ConfigMem\.Inst_frame0_bit12\.Q
*256 Inst_S_EF_ADC12_ConfigMem\.Inst_frame0_bit13\.Q
*257 Inst_S_EF_ADC12_ConfigMem\.Inst_frame0_bit14\.Q
*258 Inst_S_EF_ADC12_ConfigMem\.Inst_frame0_bit15\.Q
*259 Inst_S_EF_ADC12_ConfigMem\.Inst_frame0_bit16\.Q
*260 Inst_S_EF_ADC12_ConfigMem\.Inst_frame0_bit17\.Q
*261 Inst_S_EF_ADC12_ConfigMem\.Inst_frame0_bit18\.Q
*262 Inst_S_EF_ADC12_ConfigMem\.Inst_frame0_bit19\.Q
*263 Inst_S_EF_ADC12_ConfigMem\.Inst_frame0_bit2\.Q
*264 Inst_S_EF_ADC12_ConfigMem\.Inst_frame0_bit20\.Q
*265 Inst_S_EF_ADC12_ConfigMem\.Inst_frame0_bit21\.Q
*266 Inst_S_EF_ADC12_ConfigMem\.Inst_frame0_bit22\.Q
*267 Inst_S_EF_ADC12_ConfigMem\.Inst_frame0_bit23\.Q
*268 Inst_S_EF_ADC12_ConfigMem\.Inst_frame0_bit24\.Q
*269 Inst_S_EF_ADC12_ConfigMem\.Inst_frame0_bit25\.Q
*270 Inst_S_EF_ADC12_ConfigMem\.Inst_frame0_bit26\.Q
*271 Inst_S_EF_ADC12_ConfigMem\.Inst_frame0_bit27\.Q
*272 Inst_S_EF_ADC12_ConfigMem\.Inst_frame0_bit28\.Q
*273 Inst_S_EF_ADC12_ConfigMem\.Inst_frame0_bit29\.Q
*274 Inst_S_EF_ADC12_ConfigMem\.Inst_frame0_bit3\.Q
*275 Inst_S_EF_ADC12_ConfigMem\.Inst_frame0_bit30\.Q
*276 Inst_S_EF_ADC12_ConfigMem\.Inst_frame0_bit31\.Q
*277 Inst_S_EF_ADC12_ConfigMem\.Inst_frame0_bit4\.Q
*278 Inst_S_EF_ADC12_ConfigMem\.Inst_frame0_bit5\.Q
*279 Inst_S_EF_ADC12_ConfigMem\.Inst_frame0_bit6\.Q
*280 Inst_S_EF_ADC12_ConfigMem\.Inst_frame0_bit7\.Q
*281 Inst_S_EF_ADC12_ConfigMem\.Inst_frame0_bit8\.Q
*282 Inst_S_EF_ADC12_ConfigMem\.Inst_frame0_bit9\.Q
*283 Inst_S_EF_ADC12_ConfigMem\.Inst_frame1_bit0\.Q
*284 Inst_S_EF_ADC12_ConfigMem\.Inst_frame1_bit1\.Q
*285 Inst_S_EF_ADC12_ConfigMem\.Inst_frame1_bit10\.Q
*286 Inst_S_EF_ADC12_ConfigMem\.Inst_frame1_bit11\.Q
*287 Inst_S_EF_ADC12_ConfigMem\.Inst_frame1_bit12\.Q
*288 Inst_S_EF_ADC12_ConfigMem\.Inst_frame1_bit13\.Q
*289 Inst_S_EF_ADC12_ConfigMem\.Inst_frame1_bit14\.Q
*290 Inst_S_EF_ADC12_ConfigMem\.Inst_frame1_bit15\.Q
*291 Inst_S_EF_ADC12_ConfigMem\.Inst_frame1_bit16\.Q
*292 Inst_S_EF_ADC12_ConfigMem\.Inst_frame1_bit17\.Q
*293 Inst_S_EF_ADC12_ConfigMem\.Inst_frame1_bit18\.Q
*294 Inst_S_EF_ADC12_ConfigMem\.Inst_frame1_bit19\.Q
*295 Inst_S_EF_ADC12_ConfigMem\.Inst_frame1_bit2\.Q
*296 Inst_S_EF_ADC12_ConfigMem\.Inst_frame1_bit20\.Q
*297 Inst_S_EF_ADC12_ConfigMem\.Inst_frame1_bit21\.Q
*298 Inst_S_EF_ADC12_ConfigMem\.Inst_frame1_bit22\.Q
*299 Inst_S_EF_ADC12_ConfigMem\.Inst_frame1_bit23\.Q
*300 Inst_S_EF_ADC12_ConfigMem\.Inst_frame1_bit24\.Q
*301 Inst_S_EF_ADC12_ConfigMem\.Inst_frame1_bit25\.Q
*302 Inst_S_EF_ADC12_ConfigMem\.Inst_frame1_bit26\.Q
*303 Inst_S_EF_ADC12_ConfigMem\.Inst_frame1_bit27\.Q
*304 Inst_S_EF_ADC12_ConfigMem\.Inst_frame1_bit28\.Q
*305 Inst_S_EF_ADC12_ConfigMem\.Inst_frame1_bit29\.Q
*306 Inst_S_EF_ADC12_ConfigMem\.Inst_frame1_bit3\.Q
*307 Inst_S_EF_ADC12_ConfigMem\.Inst_frame1_bit30\.Q
*308 Inst_S_EF_ADC12_ConfigMem\.Inst_frame1_bit31\.Q
*309 Inst_S_EF_ADC12_ConfigMem\.Inst_frame1_bit4\.Q
*310 Inst_S_EF_ADC12_ConfigMem\.Inst_frame1_bit5\.Q
*311 Inst_S_EF_ADC12_ConfigMem\.Inst_frame1_bit6\.Q
*312 Inst_S_EF_ADC12_ConfigMem\.Inst_frame1_bit7\.Q
*313 Inst_S_EF_ADC12_ConfigMem\.Inst_frame1_bit8\.Q
*314 Inst_S_EF_ADC12_ConfigMem\.Inst_frame1_bit9\.Q
*315 Inst_S_EF_ADC12_ConfigMem\.Inst_frame2_bit30\.Q
*316 Inst_S_EF_ADC12_ConfigMem\.Inst_frame2_bit31\.Q
*317 Inst_S_EF_ADC12_switch_matrix\.N1BEG0
*318 Inst_S_EF_ADC12_switch_matrix\.N1BEG1
*319 Inst_S_EF_ADC12_switch_matrix\.N1BEG2
*320 Inst_S_EF_ADC12_switch_matrix\.N1BEG3
*321 Inst_S_EF_ADC12_switch_matrix\.N2BEG0
*322 Inst_S_EF_ADC12_switch_matrix\.N2BEG1
*323 Inst_S_EF_ADC12_switch_matrix\.N2BEG2
*324 Inst_S_EF_ADC12_switch_matrix\.N2BEG3
*325 Inst_S_EF_ADC12_switch_matrix\.N2BEG4
*326 Inst_S_EF_ADC12_switch_matrix\.N2BEG5
*327 Inst_S_EF_ADC12_switch_matrix\.N2BEG6
*328 Inst_S_EF_ADC12_switch_matrix\.N2BEG7
*329 Inst_S_EF_ADC12_switch_matrix\.N2BEGb0
*330 Inst_S_EF_ADC12_switch_matrix\.N2BEGb1
*331 Inst_S_EF_ADC12_switch_matrix\.N2BEGb2
*332 Inst_S_EF_ADC12_switch_matrix\.N2BEGb3
*333 Inst_S_EF_ADC12_switch_matrix\.N2BEGb4
*334 Inst_S_EF_ADC12_switch_matrix\.N2BEGb5
*335 Inst_S_EF_ADC12_switch_matrix\.N2BEGb6
*336 Inst_S_EF_ADC12_switch_matrix\.N2BEGb7
*337 Inst_S_EF_ADC12_switch_matrix\.N4BEG0
*338 Inst_S_EF_ADC12_switch_matrix\.N4BEG1
*339 Inst_S_EF_ADC12_switch_matrix\.N4BEG10
*340 Inst_S_EF_ADC12_switch_matrix\.N4BEG11
*341 Inst_S_EF_ADC12_switch_matrix\.N4BEG12
*342 Inst_S_EF_ADC12_switch_matrix\.N4BEG13
*343 Inst_S_EF_ADC12_switch_matrix\.N4BEG14
*344 Inst_S_EF_ADC12_switch_matrix\.N4BEG15
*345 Inst_S_EF_ADC12_switch_matrix\.N4BEG2
*346 Inst_S_EF_ADC12_switch_matrix\.N4BEG3
*347 Inst_S_EF_ADC12_switch_matrix\.N4BEG4
*348 Inst_S_EF_ADC12_switch_matrix\.N4BEG5
*349 Inst_S_EF_ADC12_switch_matrix\.N4BEG6
*350 Inst_S_EF_ADC12_switch_matrix\.N4BEG7
*351 Inst_S_EF_ADC12_switch_matrix\.N4BEG8
*352 Inst_S_EF_ADC12_switch_matrix\.N4BEG9
*353 Inst_S_EF_ADC12_switch_matrix\.NN4BEG0
*354 Inst_S_EF_ADC12_switch_matrix\.NN4BEG1
*355 Inst_S_EF_ADC12_switch_matrix\.NN4BEG10
*356 Inst_S_EF_ADC12_switch_matrix\.NN4BEG11
*357 Inst_S_EF_ADC12_switch_matrix\.NN4BEG12
*358 Inst_S_EF_ADC12_switch_matrix\.NN4BEG13
*359 Inst_S_EF_ADC12_switch_matrix\.NN4BEG14
*360 Inst_S_EF_ADC12_switch_matrix\.NN4BEG15
*361 Inst_S_EF_ADC12_switch_matrix\.NN4BEG2
*362 Inst_S_EF_ADC12_switch_matrix\.NN4BEG3
*363 Inst_S_EF_ADC12_switch_matrix\.NN4BEG4
*364 Inst_S_EF_ADC12_switch_matrix\.NN4BEG5
*365 Inst_S_EF_ADC12_switch_matrix\.NN4BEG6
*366 Inst_S_EF_ADC12_switch_matrix\.NN4BEG7
*367 Inst_S_EF_ADC12_switch_matrix\.NN4BEG8
*368 Inst_S_EF_ADC12_switch_matrix\.NN4BEG9
*369 UserCLK_regs
*370 _000_
*371 _001_
*372 _002_
*373 _003_
*374 _004_
*375 _005_
*376 _006_
*377 _007_
*378 _008_
*379 _009_
*380 _010_
*381 _011_
*382 _012_
*383 _013_
*384 _014_
*385 _015_
*386 _016_
*387 _017_
*388 _018_
*389 _019_
*390 _020_
*391 _021_
*392 _022_
*393 _023_
*394 _024_
*395 _025_
*396 _026_
*397 _027_
*398 _028_
*399 _029_
*400 _030_
*401 _031_
*402 _032_
*403 _033_
*404 _034_
*405 _035_
*406 _036_
*407 _037_
*408 _038_
*409 _039_
*410 _040_
*411 _041_
*412 _042_
*413 _043_
*414 _044_
*415 _045_
*416 _046_
*417 _047_
*418 _048_
*419 _049_
*420 _050_
*421 _051_
*422 _052_
*423 _053_
*424 _054_
*425 _055_
*426 _056_
*427 _057_
*428 _058_
*429 _059_
*430 _060_
*431 _061_
*432 _062_
*433 _063_
*434 _064_
*435 _065_
*436 _066_
*437 _067_
*438 _068_
*439 _069_
*440 _070_
*441 _071_
*442 _072_
*443 _073_
*444 _074_
*445 _075_
*446 _076_
*447 _077_
*448 _078_
*449 _079_
*450 _080_
*451 clknet_0_UserCLK
*452 clknet_0_UserCLK_regs
*453 clknet_1_0__leaf_UserCLK
*454 clknet_2_0__leaf_UserCLK_regs
*455 clknet_2_1__leaf_UserCLK_regs
*456 clknet_2_2__leaf_UserCLK_regs
*457 clknet_2_3__leaf_UserCLK_regs
*458 net1
*459 net10
*460 net100
*461 net101
*462 net102
*463 net103
*464 net104
*465 net105
*466 net106
*467 net107
*468 net108
*469 net109
*470 net11
*471 net110
*472 net111
*473 net112
*474 net113
*475 net114
*476 net115
*477 net116
*478 net117
*479 net118
*480 net119
*481 net12
*482 net120
*483 net121
*484 net122
*485 net123
*486 net124
*487 net125
*488 net126
*489 net127
*490 net128
*491 net129
*492 net13
*493 net130
*494 net131
*495 net132
*496 net133
*497 net134
*498 net135
*499 net136
*500 net137
*501 net138
*502 net139
*503 net14
*504 net140
*505 net141
*506 net142
*507 net143
*508 net144
*509 net145
*510 net146
*511 net147
*512 net148
*513 net149
*514 net15
*515 net150
*516 net151
*517 net152
*518 net153
*519 net154
*520 net155
*521 net156
*522 net157
*523 net158
*524 net159
*525 net16
*526 net160
*527 net161
*528 net162
*529 net163
*530 net164
*531 net165
*532 net166
*533 net167
*534 net168
*535 net169
*536 net17
*537 net170
*538 net171
*539 net172
*540 net173
*541 net174
*542 net175
*543 net176
*544 net177
*545 net178
*546 net179
*547 net18
*548 net180
*549 net181
*550 net182
*551 net183
*552 net184
*553 net185
*554 net186
*555 net187
*556 net188
*557 net189
*558 net19
*559 net190
*560 net191
*561 net192
*562 net193
*563 net194
*564 net195
*565 net196
*566 net197
*567 net198
*568 net199
*569 net2
*570 net20
*571 net200
*572 net201
*573 net202
*574 net203
*575 net204
*576 net205
*577 net206
*578 net207
*579 net208
*580 net209
*581 net21
*582 net210
*583 net211
*584 net212
*585 net213
*586 net214
*587 net215
*588 net216
*589 net217
*590 net219
*591 net22
*592 net220
*593 net221
*594 net222
*595 net223
*596 net224
*597 net225
*598 net226
*599 net227
*600 net228
*601 net229
*602 net23
*603 net230
*604 net231
*605 net232
*606 net233
*607 net234
*608 net235
*609 net236
*610 net237
*611 net24
*612 net25
*613 net26
*614 net27
*615 net28
*616 net29
*617 net3
*618 net30
*619 net31
*620 net32
*621 net33
*622 net34
*623 net35
*624 net36
*625 net37
*626 net38
*627 net39
*628 net4
*629 net40
*630 net41
*631 net42
*632 net43
*633 net44
*634 net45
*635 net46
*636 net47
*637 net48
*638 net49
*639 net5
*640 net50
*641 net51
*642 net52
*643 net53
*644 net54
*645 net55
*646 net56
*647 net57
*648 net58
*649 net59
*650 net6
*651 net60
*652 net61
*653 net62
*654 net63
*655 net64
*656 net65
*657 net66
*658 net67
*659 net68
*660 net69
*661 net7
*662 net70
*663 net71
*664 net72
*665 net73
*666 net74
*667 net75
*668 net76
*669 net77
*670 net78
*671 net79
*672 net8
*673 net80
*674 net81
*675 net82
*676 net83
*677 net84
*678 net85
*679 net86
*680 net87
*681 net88
*682 net89
*683 net9
*684 net90
*685 net91
*686 net92
*687 net93
*688 net94
*689 net95
*690 net96
*691 net97
*692 net98
*693 net99
*694 ANTENNA_1
*695 ANTENNA_10
*696 ANTENNA_11
*697 ANTENNA_12
*698 ANTENNA_13
*699 ANTENNA_14
*700 ANTENNA_15
*701 ANTENNA_16
*702 ANTENNA_17
*703 ANTENNA_2
*704 ANTENNA_3
*705 ANTENNA_4
*706 ANTENNA_5
*707 ANTENNA_6
*708 ANTENNA_7
*709 ANTENNA_8
*710 ANTENNA_9
*711 FILLER_0_101
*712 FILLER_0_126
*713 FILLER_0_149
*714 FILLER_0_164
*715 FILLER_0_173
*716 FILLER_0_177
*717 FILLER_0_181
*718 FILLER_0_195
*719 FILLER_0_200
*720 FILLER_0_204
*721 FILLER_0_208
*722 FILLER_0_223
*723 FILLER_0_228
*724 FILLER_0_23
*725 FILLER_0_236
*726 FILLER_0_240
*727 FILLER_0_253
*728 FILLER_0_265
*729 FILLER_0_27
*730 FILLER_0_277
*731 FILLER_0_290
*732 FILLER_0_302
*733 FILLER_0_309
*734 FILLER_0_324
*735 FILLER_0_33
*736 FILLER_0_332
*737 FILLER_0_337
*738 FILLER_0_350
*739 FILLER_0_355
*740 FILLER_0_363
*741 FILLER_0_365
*742 FILLER_0_377
*743 FILLER_0_389
*744 FILLER_0_393
*745 FILLER_0_397
*746 FILLER_0_41
*747 FILLER_0_57
*748 FILLER_0_65
*749 FILLER_0_71
*750 FILLER_0_94
*751 FILLER_10_138
*752 FILLER_10_189
*753 FILLER_10_23
*754 FILLER_10_250
*755 FILLER_10_253
*756 FILLER_10_306
*757 FILLER_10_335
*758 FILLER_10_359
*759 FILLER_10_363
*760 FILLER_10_369
*761 FILLER_10_379
*762 FILLER_10_385
*763 FILLER_10_391
*764 FILLER_10_403
*765 FILLER_10_62
*766 FILLER_11_113
*767 FILLER_11_197
*768 FILLER_11_210
*769 FILLER_11_220
*770 FILLER_11_225
*771 FILLER_11_267
*772 FILLER_11_29
*773 FILLER_11_317
*774 FILLER_11_335
*775 FILLER_11_340
*776 FILLER_11_362
*777 FILLER_11_389
*778 FILLER_11_409
*779 FILLER_11_41
*780 FILLER_11_57
*781 FILLER_11_85
*782 FILLER_11_98
*783 FILLER_1_164
*784 FILLER_1_169
*785 FILLER_1_22
*786 FILLER_1_222
*787 FILLER_1_225
*788 FILLER_1_266
*789 FILLER_1_271
*790 FILLER_1_296
*791 FILLER_1_3
*792 FILLER_1_308
*793 FILLER_1_321
*794 FILLER_1_335
*795 FILLER_1_34
*796 FILLER_1_349
*797 FILLER_1_375
*798 FILLER_1_383
*799 FILLER_1_389
*800 FILLER_1_393
*801 FILLER_1_405
*802 FILLER_1_54
*803 FILLER_1_66
*804 FILLER_1_97
*805 FILLER_2_116
*806 FILLER_2_136
*807 FILLER_2_161
*808 FILLER_2_169
*809 FILLER_2_197
*810 FILLER_2_209
*811 FILLER_2_213
*812 FILLER_2_22
*813 FILLER_2_220
*814 FILLER_2_224
*815 FILLER_2_253
*816 FILLER_2_275
*817 FILLER_2_306
*818 FILLER_2_321
*819 FILLER_2_33
*820 FILLER_2_336
*821 FILLER_2_340
*822 FILLER_2_344
*823 FILLER_2_356
*824 FILLER_2_365
*825 FILLER_2_373
*826 FILLER_2_380
*827 FILLER_2_392
*828 FILLER_2_404
*829 FILLER_2_51
*830 FILLER_2_63
*831 FILLER_2_83
*832 FILLER_2_94
*833 FILLER_3_129
*834 FILLER_3_13
*835 FILLER_3_161
*836 FILLER_3_198
*837 FILLER_3_219
*838 FILLER_3_223
*839 FILLER_3_234
*840 FILLER_3_249
*841 FILLER_3_254
*842 FILLER_3_269
*843 FILLER_3_277
*844 FILLER_3_281
*845 FILLER_3_303
*846 FILLER_3_309
*847 FILLER_3_324
*848 FILLER_3_337
*849 FILLER_3_341
*850 FILLER_3_347
*851 FILLER_3_359
*852 FILLER_3_388
*853 FILLER_3_393
*854 FILLER_3_397
*855 FILLER_3_409
*856 FILLER_3_55
*857 FILLER_3_66
*858 FILLER_3_74
*859 FILLER_3_78
*860 FILLER_4_11
*861 FILLER_4_112
*862 FILLER_4_130
*863 FILLER_4_146
*864 FILLER_4_18
*865 FILLER_4_191
*866 FILLER_4_195
*867 FILLER_4_22
*868 FILLER_4_236
*869 FILLER_4_240
*870 FILLER_4_250
*871 FILLER_4_26
*872 FILLER_4_262
*873 FILLER_4_270
*874 FILLER_4_306
*875 FILLER_4_309
*876 FILLER_4_323
*877 FILLER_4_336
*878 FILLER_4_355
*879 FILLER_4_363
*880 FILLER_4_380
*881 FILLER_4_392
*882 FILLER_4_397
*883 FILLER_4_73
*884 FILLER_4_85
*885 FILLER_5_121
*886 FILLER_5_166
*887 FILLER_5_19
*888 FILLER_5_190
*889 FILLER_5_194
*890 FILLER_5_223
*891 FILLER_5_234
*892 FILLER_5_247
*893 FILLER_5_255
*894 FILLER_5_266
*895 FILLER_5_3
*896 FILLER_5_313
*897 FILLER_5_328
*898 FILLER_5_349
*899 FILLER_5_361
*900 FILLER_5_373
*901 FILLER_5_385
*902 FILLER_5_391
*903 FILLER_5_396
*904 FILLER_5_40
*905 FILLER_5_50
*906 FILLER_6_110
*907 FILLER_6_177
*908 FILLER_6_213
*909 FILLER_6_243
*910 FILLER_6_262
*911 FILLER_6_274
*912 FILLER_6_292
*913 FILLER_6_3
*914 FILLER_6_315
*915 FILLER_6_328
*916 FILLER_6_332
*917 FILLER_6_339
*918 FILLER_6_347
*919 FILLER_6_352
*920 FILLER_6_365
*921 FILLER_6_37
*922 FILLER_6_378
*923 FILLER_6_390
*924 FILLER_6_394
*925 FILLER_6_401
*926 FILLER_6_62
*927 FILLER_6_67
*928 FILLER_6_73
*929 FILLER_6_85
*930 FILLER_7_113
*931 FILLER_7_138
*932 FILLER_7_16
*933 FILLER_7_189
*934 FILLER_7_196
*935 FILLER_7_223
*936 FILLER_7_228
*937 FILLER_7_234
*938 FILLER_7_238
*939 FILLER_7_246
*940 FILLER_7_259
*941 FILLER_7_263
*942 FILLER_7_271
*943 FILLER_7_284
*944 FILLER_7_3
*945 FILLER_7_313
*946 FILLER_7_337
*947 FILLER_7_360
*948 FILLER_7_389
*949 FILLER_7_393
*950 FILLER_7_51
*951 FILLER_7_99
*952 FILLER_8_141
*953 FILLER_8_189
*954 FILLER_8_197
*955 FILLER_8_242
*956 FILLER_8_29
*957 FILLER_8_3
*958 FILLER_8_318
*959 FILLER_8_342
*960 FILLER_8_365
*961 FILLER_8_371
*962 FILLER_8_375
*963 FILLER_8_380
*964 FILLER_8_392
*965 FILLER_9_191
*966 FILLER_9_233
*967 FILLER_9_290
*968 FILLER_9_318
*969 FILLER_9_36
*970 FILLER_9_364
*971 FILLER_9_376
*972 FILLER_9_388
*973 FILLER_9_393
*974 FILLER_9_57
*975 FILLER_9_94
*976 PHY_EDGE_ROW_0_Left_12
*977 PHY_EDGE_ROW_0_Right_0
*978 PHY_EDGE_ROW_10_Left_22
*979 PHY_EDGE_ROW_10_Right_10
*980 PHY_EDGE_ROW_11_Left_23
*981 PHY_EDGE_ROW_11_Right_11
*982 PHY_EDGE_ROW_1_Left_13
*983 PHY_EDGE_ROW_1_Right_1
*984 PHY_EDGE_ROW_2_Left_14
*985 PHY_EDGE_ROW_2_Right_2
*986 PHY_EDGE_ROW_3_Left_15
*987 PHY_EDGE_ROW_3_Right_3
*988 PHY_EDGE_ROW_4_Left_16
*989 PHY_EDGE_ROW_4_Right_4
*990 PHY_EDGE_ROW_5_Left_17
*991 PHY_EDGE_ROW_5_Right_5
*992 PHY_EDGE_ROW_6_Left_18
*993 PHY_EDGE_ROW_6_Right_6
*994 PHY_EDGE_ROW_7_Left_19
*995 PHY_EDGE_ROW_7_Right_7
*996 PHY_EDGE_ROW_8_Left_20
*997 PHY_EDGE_ROW_8_Right_8
*998 PHY_EDGE_ROW_9_Left_21
*999 PHY_EDGE_ROW_9_Right_9
*1000 S_EF_ADC12_207
*1001 TAP_TAPCELL_ROW_0_24
*1002 TAP_TAPCELL_ROW_0_25
*1003 TAP_TAPCELL_ROW_0_26
*1004 TAP_TAPCELL_ROW_0_27
*1005 TAP_TAPCELL_ROW_0_28
*1006 TAP_TAPCELL_ROW_0_29
*1007 TAP_TAPCELL_ROW_0_30
*1008 TAP_TAPCELL_ROW_0_31
*1009 TAP_TAPCELL_ROW_0_32
*1010 TAP_TAPCELL_ROW_0_33
*1011 TAP_TAPCELL_ROW_0_34
*1012 TAP_TAPCELL_ROW_0_35
*1013 TAP_TAPCELL_ROW_0_36
*1014 TAP_TAPCELL_ROW_0_37
*1015 TAP_TAPCELL_ROW_10_101
*1016 TAP_TAPCELL_ROW_10_102
*1017 TAP_TAPCELL_ROW_10_103
*1018 TAP_TAPCELL_ROW_10_104
*1019 TAP_TAPCELL_ROW_10_105
*1020 TAP_TAPCELL_ROW_10_106
*1021 TAP_TAPCELL_ROW_10_107
*1022 TAP_TAPCELL_ROW_11_108
*1023 TAP_TAPCELL_ROW_11_109
*1024 TAP_TAPCELL_ROW_11_110
*1025 TAP_TAPCELL_ROW_11_111
*1026 TAP_TAPCELL_ROW_11_112
*1027 TAP_TAPCELL_ROW_11_113
*1028 TAP_TAPCELL_ROW_11_114
*1029 TAP_TAPCELL_ROW_11_115
*1030 TAP_TAPCELL_ROW_11_116
*1031 TAP_TAPCELL_ROW_11_117
*1032 TAP_TAPCELL_ROW_11_118
*1033 TAP_TAPCELL_ROW_11_119
*1034 TAP_TAPCELL_ROW_11_120
*1035 TAP_TAPCELL_ROW_11_121
*1036 TAP_TAPCELL_ROW_1_38
*1037 TAP_TAPCELL_ROW_1_39
*1038 TAP_TAPCELL_ROW_1_40
*1039 TAP_TAPCELL_ROW_1_41
*1040 TAP_TAPCELL_ROW_1_42
*1041 TAP_TAPCELL_ROW_1_43
*1042 TAP_TAPCELL_ROW_1_44
*1043 TAP_TAPCELL_ROW_2_45
*1044 TAP_TAPCELL_ROW_2_46
*1045 TAP_TAPCELL_ROW_2_47
*1046 TAP_TAPCELL_ROW_2_48
*1047 TAP_TAPCELL_ROW_2_49
*1048 TAP_TAPCELL_ROW_2_50
*1049 TAP_TAPCELL_ROW_2_51
*1050 TAP_TAPCELL_ROW_3_52
*1051 TAP_TAPCELL_ROW_3_53
*1052 TAP_TAPCELL_ROW_3_54
*1053 TAP_TAPCELL_ROW_3_55
*1054 TAP_TAPCELL_ROW_3_56
*1055 TAP_TAPCELL_ROW_3_57
*1056 TAP_TAPCELL_ROW_3_58
*1057 TAP_TAPCELL_ROW_4_59
*1058 TAP_TAPCELL_ROW_4_60
*1059 TAP_TAPCELL_ROW_4_61
*1060 TAP_TAPCELL_ROW_4_62
*1061 TAP_TAPCELL_ROW_4_63
*1062 TAP_TAPCELL_ROW_4_64
*1063 TAP_TAPCELL_ROW_4_65
*1064 TAP_TAPCELL_ROW_5_66
*1065 TAP_TAPCELL_ROW_5_67
*1066 TAP_TAPCELL_ROW_5_68
*1067 TAP_TAPCELL_ROW_5_69
*1068 TAP_TAPCELL_ROW_5_70
*1069 TAP_TAPCELL_ROW_5_71
*1070 TAP_TAPCELL_ROW_5_72
*1071 TAP_TAPCELL_ROW_6_73
*1072 TAP_TAPCELL_ROW_6_74
*1073 TAP_TAPCELL_ROW_6_75
*1074 TAP_TAPCELL_ROW_6_76
*1075 TAP_TAPCELL_ROW_6_77
*1076 TAP_TAPCELL_ROW_6_78
*1077 TAP_TAPCELL_ROW_6_79
*1078 TAP_TAPCELL_ROW_7_80
*1079 TAP_TAPCELL_ROW_7_81
*1080 TAP_TAPCELL_ROW_7_82
*1081 TAP_TAPCELL_ROW_7_83
*1082 TAP_TAPCELL_ROW_7_84
*1083 TAP_TAPCELL_ROW_7_85
*1084 TAP_TAPCELL_ROW_7_86
*1085 TAP_TAPCELL_ROW_8_87
*1086 TAP_TAPCELL_ROW_8_88
*1087 TAP_TAPCELL_ROW_8_89
*1088 TAP_TAPCELL_ROW_8_90
*1089 TAP_TAPCELL_ROW_8_91
*1090 TAP_TAPCELL_ROW_8_92
*1091 TAP_TAPCELL_ROW_8_93
*1092 TAP_TAPCELL_ROW_9_100
*1093 TAP_TAPCELL_ROW_9_94
*1094 TAP_TAPCELL_ROW_9_95
*1095 TAP_TAPCELL_ROW_9_96
*1096 TAP_TAPCELL_ROW_9_97
*1097 TAP_TAPCELL_ROW_9_98
*1098 TAP_TAPCELL_ROW_9_99
*1099 _081_
*1100 _082_
*1101 _083_
*1102 _084_
*1103 _085_
*1104 _086_
*1105 _087_
*1106 _088_
*1107 _089_
*1108 _090_
*1109 _091_
*1110 _092_
*1111 _093_
*1112 _094_
*1113 _095_
*1114 _096_
*1115 _097_
*1116 _098_
*1117 _099_
*1118 _100_
*1119 _101_
*1120 _102_
*1121 _103_
*1122 _104_
*1123 _105_
*1124 _106_
*1125 _107_
*1126 _108_
*1127 _109_
*1128 _110_
*1129 _111_
*1130 _112_
*1131 _113_
*1132 _114_
*1133 _115_
*1134 _116_
*1135 _117_
*1136 _118_
*1137 _119_
*1138 _120_
*1139 _121_
*1140 _122_
*1141 _123_
*1142 _124_
*1143 _125_
*1144 _126_
*1145 _127_
*1146 _128_
*1147 _129_
*1148 _130_
*1149 _131_
*1150 _132_
*1151 _133_
*1152 _134_
*1153 _135_
*1154 _136_
*1155 _137_
*1156 _138_
*1157 _139_
*1158 _140_
*1159 _141_
*1160 _142_
*1161 _143_
*1162 _144_
*1163 _145_
*1164 _146_
*1165 _147_
*1166 _148_
*1167 _149_
*1168 _150_
*1169 _151_
*1170 _152_
*1171 _153_
*1172 _154_
*1173 _155_
*1174 _156_
*1175 _157_
*1176 _158_
*1177 _159_
*1178 _160_
*1179 _161_
*1180 _162_
*1181 _163_
*1182 _164_
*1183 _165_
*1184 _166_
*1185 _167_
*1186 _168_
*1187 _169_
*1188 _170_
*1189 _171_
*1190 _172_
*1191 _173_
*1192 _174_
*1193 _175_
*1194 _176_
*1195 _177_
*1196 _178_
*1197 _179_
*1198 _180_
*1199 _181_
*1200 _182_
*1201 _183_
*1202 _184_
*1203 _185_
*1204 _186_
*1205 _187_
*1206 _188_
*1207 _189_
*1208 _190_
*1209 _191_
*1210 _192_
*1211 _193_
*1212 _194_
*1213 _195_
*1214 _196_
*1215 _197_
*1216 _198_
*1217 _199_
*1218 _200_
*1219 _201_
*1220 _202_
*1221 _203_
*1222 _204_
*1223 _205_
*1224 _206_
*1225 _207_
*1226 _208_
*1227 _209_
*1228 _210_
*1229 _211_
*1230 _212_
*1231 _213_
*1232 _214_
*1233 _215_
*1234 _216_
*1235 _217_
*1236 _218_
*1237 _219_
*1238 _220_
*1239 _221_
*1240 _222_
*1241 _223_
*1242 _224_
*1243 _225_
*1244 _226_
*1245 _227_
*1246 _228_
*1247 _229_
*1248 _230_
*1249 _231_
*1250 _232_
*1251 _233_
*1252 _234_
*1253 _235_
*1254 _236_
*1255 _237_
*1256 _238_
*1257 _239_
*1258 _240_
*1259 _241_
*1260 _242_
*1261 _243_
*1262 _244_
*1263 _245_
*1264 _246_
*1265 _247_
*1266 _248_
*1267 _249_
*1268 _250_
*1269 _251_
*1270 _252_
*1271 _253_
*1272 _254_
*1273 _255_
*1274 _256_
*1275 _257_
*1276 _258_
*1277 _259_
*1278 _260_
*1279 _261_
*1280 _262_
*1281 _263_
*1282 _264_
*1283 _265_
*1284 _266_
*1285 _267_
*1286 _268_
*1287 _269_
*1288 _270_
*1289 _271_
*1290 _272_
*1291 _273_
*1292 _274_
*1293 _275_
*1294 _276_
*1295 _277_
*1296 _278_
*1297 _279_
*1298 _280_
*1299 _281_
*1300 _282_
*1301 _283_
*1302 _284_
*1303 _285_
*1304 _286_
*1305 _287_
*1306 _288_
*1307 _289_
*1308 _290_
*1309 _291_
*1310 _292_
*1311 _293_
*1312 _294_
*1313 _295_
*1314 _296_
*1315 _297_
*1316 _298_
*1317 _299_
*1318 _300_
*1319 _301_
*1320 _302_
*1321 _303_
*1322 _304_
*1323 _305_
*1324 _306_
*1325 _307_
*1326 _308_
*1327 _309_
*1328 _310_
*1329 _311_
*1330 _312_
*1331 _313_
*1332 _314_
*1333 _315_
*1334 _317_
*1335 _318_
*1336 _319_
*1337 _320_
*1338 _321_
*1339 _322_
*1340 _323_
*1341 _324_
*1342 _325_
*1343 _326_
*1344 _327_
*1345 _328_
*1346 _329_
*1347 _330_
*1348 _331_
*1349 _332_
*1350 _333_
*1351 _334_
*1352 _335_
*1353 _336_
*1354 _337_
*1355 _338_
*1356 _339_
*1357 _340_
*1358 _341_
*1359 _342_
*1360 _343_
*1361 _344_
*1362 _345_
*1363 _346_
*1364 _347_
*1365 _348_
*1366 _349_
*1367 _350_
*1368 _351_
*1369 _352_
*1370 _353_
*1371 _354_
*1372 _355_
*1373 _356_
*1374 _357_
*1375 _358_
*1376 _359_
*1377 _360_
*1378 _361_
*1379 _362_
*1380 _363_
*1381 _364_
*1382 _365_
*1383 _366_
*1384 _367_
*1385 _368_
*1386 _369_
*1387 _370_
*1388 _371_
*1389 _372_
*1390 _373_
*1391 _374_
*1392 _375_
*1393 _376_
*1394 _377_
*1395 _378_
*1396 _379_
*1397 _380_
*1398 _381_
*1399 _382_
*1400 _383_
*1401 _384_
*1402 _385_
*1403 _386_
*1404 _387_
*1405 _388_
*1406 _389_
*1407 _390_
*1408 _391_
*1409 _392_
*1410 _393_
*1411 _394_
*1412 _395_
*1413 _396_
*1414 _397_
*1415 _398_
*1416 _399_
*1417 _400_
*1418 _401_
*1419 _402_
*1420 _403_
*1421 _404_
*1422 _405_
*1423 _406_
*1424 _407_
*1425 _408_
*1426 _409_
*1427 _410_
*1428 _411_
*1429 _412_
*1430 _413_
*1431 _414_
*1432 _415_
*1433 _416_
*1434 _417_
*1435 _418_
*1436 _419_
*1437 _420_
*1438 _421_
*1439 clkbuf_0_UserCLK
*1440 clkbuf_0_UserCLK_regs
*1441 clkbuf_1_0__f_UserCLK
*1442 clkbuf_2_0__f_UserCLK_regs
*1443 clkbuf_2_1__f_UserCLK_regs
*1444 clkbuf_2_2__f_UserCLK_regs
*1445 clkbuf_2_3__f_UserCLK_regs
*1446 clkbuf_regs_0_UserCLK
*1447 clkload0
*1448 clkload1
*1449 clkload2
*1450 fanout33
*1451 fanout34
*1452 fanout35
*1453 fanout36
*1454 fanout37
*1455 fanout38
*1456 fanout39
*1457 fanout40
*1458 fanout41
*1459 fanout42
*1460 fanout43
*1461 hold1
*1462 hold10
*1463 hold11
*1464 hold12
*1465 hold13
*1466 hold14
*1467 hold15
*1468 hold16
*1469 hold17
*1470 hold18
*1471 hold19
*1472 hold2
*1473 hold3
*1474 hold4
*1475 hold5
*1476 hold6
*1477 hold7
*1478 hold8
*1479 hold9
*1480 input1
*1481 input10
*1482 input11
*1483 input12
*1484 input13
*1485 input14
*1486 input15
*1487 input16
*1488 input17
*1489 input18
*1490 input19
*1491 input2
*1492 input20
*1493 input21
*1494 input22
*1495 input23
*1496 input24
*1497 input25
*1498 input26
*1499 input27
*1500 input28
*1501 input29
*1502 input3
*1503 input30
*1504 input31
*1505 input32
*1506 input33
*1507 input34
*1508 input35
*1509 input36
*1510 input37
*1511 input38
*1512 input39
*1513 input4
*1514 input40
*1515 input41
*1516 input42
*1517 input43
*1518 input44
*1519 input45
*1520 input46
*1521 input47
*1522 input48
*1523 input49
*1524 input5
*1525 input50
*1526 input51
*1527 input52
*1528 input53
*1529 input54
*1530 input55
*1531 input56
*1532 input57
*1533 input58
*1534 input59
*1535 input6
*1536 input60
*1537 input61
*1538 input62
*1539 input63
*1540 input64
*1541 input65
*1542 input66
*1543 input67
*1544 input68
*1545 input69
*1546 input7
*1547 input70
*1548 input71
*1549 input72
*1550 input73
*1551 input74
*1552 input75
*1553 input76
*1554 input77
*1555 input78
*1556 input79
*1557 input8
*1558 input80
*1559 input81
*1560 input82
*1561 input83
*1562 input84
*1563 input85
*1564 input86
*1565 input87
*1566 input9
*1567 output100
*1568 output101
*1569 output102
*1570 output103
*1571 output104
*1572 output105
*1573 output106
*1574 output107
*1575 output108
*1576 output109
*1577 output110
*1578 output111
*1579 output112
*1580 output113
*1581 output114
*1582 output115
*1583 output116
*1584 output117
*1585 output118
*1586 output119
*1587 output120
*1588 output121
*1589 output122
*1590 output123
*1591 output124
*1592 output125
*1593 output126
*1594 output127
*1595 output128
*1596 output129
*1597 output130
*1598 output131
*1599 output132
*1600 output133
*1601 output134
*1602 output135
*1603 output136
*1604 output137
*1605 output138
*1606 output139
*1607 output140
*1608 output141
*1609 output142
*1610 output143
*1611 output144
*1612 output145
*1613 output146
*1614 output147
*1615 output148
*1616 output149
*1617 output150
*1618 output151
*1619 output152
*1620 output153
*1621 output154
*1622 output155
*1623 output156
*1624 output157
*1625 output158
*1626 output159
*1627 output160
*1628 output161
*1629 output162
*1630 output163
*1631 output164
*1632 output165
*1633 output166
*1634 output167