*SPEF "ieee 1481-1999"
*DESIGN "N_term_DSP"
*DATE "08:48:35 Monday February 24, 2025"
*VENDOR "The OpenROAD Project"
*PROGRAM "OpenROAD"
*VERSION "87af90f72f3f9be1fdfa1d886f0dd8d8b8f34694"
*DESIGN_FLOW "NAME_SCOPE LOCAL" "PIN_CAP NONE"
*DIVIDER /
*DELIMITER :
*BUS_DELIMITER []
*T_UNIT 1 NS
*C_UNIT 1 PF
*R_UNIT 1 OHM
*L_UNIT 1 HENRY

*NAME_MAP
*1 FrameData[0]
*2 FrameData[10]
*3 FrameData[11]
*4 FrameData[12]
*5 FrameData[13]
*6 FrameData[14]
*7 FrameData[15]
*8 FrameData[16]
*9 FrameData[17]
*10 FrameData[18]
*11 FrameData[19]
*12 FrameData[1]
*13 FrameData[20]
*14 FrameData[21]
*15 FrameData[22]
*16 FrameData[23]
*17 FrameData[24]
*18 FrameData[25]
*19 FrameData[26]
*20 FrameData[27]
*21 FrameData[28]
*22 FrameData[29]
*23 FrameData[2]
*24 FrameData[30]
*25 FrameData[31]
*26 FrameData[3]
*27 FrameData[4]
*28 FrameData[5]
*29 FrameData[6]
*30 FrameData[7]
*31 FrameData[8]
*32 FrameData[9]
*33 FrameData_O[0]
*34 FrameData_O[10]
*35 FrameData_O[11]
*36 FrameData_O[12]
*37 FrameData_O[13]
*38 FrameData_O[14]
*39 FrameData_O[15]
*40 FrameData_O[16]
*41 FrameData_O[17]
*42 FrameData_O[18]
*43 FrameData_O[19]
*44 FrameData_O[1]
*45 FrameData_O[20]
*46 FrameData_O[21]
*47 FrameData_O[22]
*48 FrameData_O[23]
*49 FrameData_O[24]
*50 FrameData_O[25]
*51 FrameData_O[26]
*52 FrameData_O[27]
*53 FrameData_O[28]
*54 FrameData_O[29]
*55 FrameData_O[2]
*56 FrameData_O[30]
*57 FrameData_O[31]
*58 FrameData_O[3]
*59 FrameData_O[4]
*60 FrameData_O[5]
*61 FrameData_O[6]
*62 FrameData_O[7]
*63 FrameData_O[8]
*64 FrameData_O[9]
*65 FrameStrobe[0]
*66 FrameStrobe[10]
*67 FrameStrobe[11]
*68 FrameStrobe[12]
*69 FrameStrobe[13]
*70 FrameStrobe[14]
*71 FrameStrobe[15]
*72 FrameStrobe[16]
*73 FrameStrobe[17]
*74 FrameStrobe[18]
*75 FrameStrobe[19]
*76 FrameStrobe[1]
*77 FrameStrobe[2]
*78 FrameStrobe[3]
*79 FrameStrobe[4]
*80 FrameStrobe[5]
*81 FrameStrobe[6]
*82 FrameStrobe[7]
*83 FrameStrobe[8]
*84 FrameStrobe[9]
*85 FrameStrobe_O[0]
*86 FrameStrobe_O[10]
*87 FrameStrobe_O[11]
*88 FrameStrobe_O[12]
*89 FrameStrobe_O[13]
*90 FrameStrobe_O[14]
*91 FrameStrobe_O[15]
*92 FrameStrobe_O[16]
*93 FrameStrobe_O[17]
*94 FrameStrobe_O[18]
*95 FrameStrobe_O[19]
*96 FrameStrobe_O[1]
*97 FrameStrobe_O[2]
*98 FrameStrobe_O[3]
*99 FrameStrobe_O[4]
*100 FrameStrobe_O[5]
*101 FrameStrobe_O[6]
*102 FrameStrobe_O[7]
*103 FrameStrobe_O[8]
*104 FrameStrobe_O[9]
*105 N1END[0]
*106 N1END[1]
*107 N1END[2]
*108 N1END[3]
*109 N2END[0]
*110 N2END[1]
*111 N2END[2]
*112 N2END[3]
*113 N2END[4]
*114 N2END[5]
*115 N2END[6]
*116 N2END[7]
*117 N2MID[0]
*118 N2MID[1]
*119 N2MID[2]
*120 N2MID[3]
*121 N2MID[4]
*122 N2MID[5]
*123 N2MID[6]
*124 N2MID[7]
*125 N4END[0]
*126 N4END[10]
*127 N4END[11]
*128 N4END[12]
*129 N4END[13]
*130 N4END[14]
*131 N4END[15]
*132 N4END[1]
*133 N4END[2]
*134 N4END[3]
*135 N4END[4]
*136 N4END[5]
*137 N4END[6]
*138 N4END[7]
*139 N4END[8]
*140 N4END[9]
*141 NN4END[0]
*142 NN4END[10]
*143 NN4END[11]
*144 NN4END[12]
*145 NN4END[13]
*146 NN4END[14]
*147 NN4END[15]
*148 NN4END[1]
*149 NN4END[2]
*150 NN4END[3]
*151 NN4END[4]
*152 NN4END[5]
*153 NN4END[6]
*154 NN4END[7]
*155 NN4END[8]
*156 NN4END[9]
*157 S1BEG[0]
*158 S1BEG[1]
*159 S1BEG[2]
*160 S1BEG[3]
*161 S2BEG[0]
*162 S2BEG[1]
*163 S2BEG[2]
*164 S2BEG[3]
*165 S2BEG[4]
*166 S2BEG[5]
*167 S2BEG[6]
*168 S2BEG[7]
*169 S2BEGb[0]
*170 S2BEGb[1]
*171 S2BEGb[2]
*172 S2BEGb[3]
*173 S2BEGb[4]
*174 S2BEGb[5]
*175 S2BEGb[6]
*176 S2BEGb[7]
*177 S4BEG[0]
*178 S4BEG[10]
*179 S4BEG[11]
*180 S4BEG[12]
*181 S4BEG[13]
*182 S4BEG[14]
*183 S4BEG[15]
*184 S4BEG[1]
*185 S4BEG[2]
*186 S4BEG[3]
*187 S4BEG[4]
*188 S4BEG[5]
*189 S4BEG[6]
*190 S4BEG[7]
*191 S4BEG[8]
*192 S4BEG[9]
*193 SS4BEG[0]
*194 SS4BEG[10]
*195 SS4BEG[11]
*196 SS4BEG[12]
*197 SS4BEG[13]
*198 SS4BEG[14]
*199 SS4BEG[15]
*200 SS4BEG[1]
*201 SS4BEG[2]
*202 SS4BEG[3]
*203 SS4BEG[4]
*204 SS4BEG[5]
*205 SS4BEG[6]
*206 SS4BEG[7]
*207 SS4BEG[8]
*208 SS4BEG[9]
*209 UserCLK
*210 UserCLKo
*213 net1
*214 net10
*215 net100
*216 net101
*217 net102
*218 net103
*219 net104
*220 net105
*221 net11
*222 net12
*223 net13
*224 net14
*225 net15
*226 net16
*227 net17
*228 net18
*229 net19
*230 net2
*231 net20
*232 net21
*233 net22
*234 net23
*235 net24
*236 net25
*237 net26
*238 net27
*239 net28
*240 net29
*241 net3
*242 net30
*243 net31
*244 net32
*245 net33
*246 net34
*247 net35
*248 net36
*249 net37
*250 net38
*251 net39
*252 net4
*253 net40
*254 net41
*255 net42
*256 net43
*257 net44
*258 net45
*259 net46
*260 net47
*261 net48
*262 net49
*263 net5
*264 net50
*265 net51
*266 net52
*267 net53
*268 net54
*269 net55
*270 net56
*271 net57
*272 net58
*273 net59
*274 net6
*275 net60
*276 net61
*277 net62
*278 net63
*279 net64
*280 net65
*281 net66
*282 net67
*283 net68
*284 net69
*285 net7
*286 net70
*287 net71
*288 net72
*289 net73
*290 net74
*291 net75
*292 net76
*293 net77
*294 net78
*295 net79
*296 net8
*297 net80
*298 net81
*299 net82
*300 net83
*301 net84
*302 net85
*303 net86
*304 net87
*305 net88
*306 net89
*307 net9
*308 net90
*309 net91
*310 net92
*311 net93
*312 net94
*313 net95
*314 net96
*315 net97
*316 net98
*317 net99
*318 ANTENNA_1
*319 ANTENNA_10
*320 ANTENNA_11
*321 ANTENNA_12
*322 ANTENNA_13
*323 ANTENNA_14
*324 ANTENNA_15
*325 ANTENNA_16
*326 ANTENNA_17
*327 ANTENNA_18
*328 ANTENNA_19
*329 ANTENNA_2
*330 ANTENNA_20
*331 ANTENNA_21
*332 ANTENNA_22
*333 ANTENNA_23
*334 ANTENNA_24
*335 ANTENNA_25
*336 ANTENNA_26
*337 ANTENNA_27
*338 ANTENNA_28
*339 ANTENNA_29
*340 ANTENNA_3
*341 ANTENNA_30
*342 ANTENNA_31
*343 ANTENNA_32
*344 ANTENNA_33
*345 ANTENNA_34
*346 ANTENNA_35
*347 ANTENNA_36
*348 ANTENNA_37
*349 ANTENNA_38
*350 ANTENNA_39
*351 ANTENNA_4
*352 ANTENNA_40
*353 ANTENNA_5
*354 ANTENNA_6
*355 ANTENNA_7
*356 ANTENNA_8
*357 ANTENNA_9
*358 FILLER_0_109
*359 FILLER_0_113
*360 FILLER_0_125
*361 FILLER_0_137
*362 FILLER_0_141
*363 FILLER_0_15
*364 FILLER_0_153
*365 FILLER_0_165
*366 FILLER_0_169
*367 FILLER_0_181
*368 FILLER_0_193
*369 FILLER_0_197
*370 FILLER_0_249
*371 FILLER_0_27
*372 FILLER_0_277
*373 FILLER_0_29
*374 FILLER_0_3
*375 FILLER_0_305
*376 FILLER_0_325
*377 FILLER_0_335
*378 FILLER_0_361
*379 FILLER_0_373
*380 FILLER_0_385
*381 FILLER_0_391
*382 FILLER_0_393
*383 FILLER_0_405
*384 FILLER_0_41
*385 FILLER_0_417
*386 FILLER_0_421
*387 FILLER_0_433
*388 FILLER_0_441
*389 FILLER_0_449
*390 FILLER_0_53
*391 FILLER_0_57
*392 FILLER_0_69
*393 FILLER_0_81
*394 FILLER_0_85
*395 FILLER_0_97
*396 FILLER_10_109
*397 FILLER_10_121
*398 FILLER_10_133
*399 FILLER_10_139
*400 FILLER_10_141
*401 FILLER_10_15
*402 FILLER_10_153
*403 FILLER_10_161
*404 FILLER_10_165
*405 FILLER_10_177
*406 FILLER_10_183
*407 FILLER_10_195
*408 FILLER_10_197
*409 FILLER_10_203
*410 FILLER_10_212
*411 FILLER_10_223
*412 FILLER_10_235
*413 FILLER_10_241
*414 FILLER_10_247
*415 FILLER_10_251
*416 FILLER_10_258
*417 FILLER_10_27
*418 FILLER_10_270
*419 FILLER_10_279
*420 FILLER_10_288
*421 FILLER_10_297
*422 FILLER_10_3
*423 FILLER_10_305
*424 FILLER_10_314
*425 FILLER_10_32
*426 FILLER_10_326
*427 FILLER_10_338
*428 FILLER_10_350
*429 FILLER_10_36
*430 FILLER_10_362
*431 FILLER_10_365
*432 FILLER_10_377
*433 FILLER_10_389
*434 FILLER_10_401
*435 FILLER_10_413
*436 FILLER_10_419
*437 FILLER_10_421
*438 FILLER_10_433
*439 FILLER_10_441
*440 FILLER_10_48
*441 FILLER_10_60
*442 FILLER_10_72
*443 FILLER_10_85
*444 FILLER_10_97
*445 FILLER_11_111
*446 FILLER_11_113
*447 FILLER_11_117
*448 FILLER_11_122
*449 FILLER_11_134
*450 FILLER_11_145
*451 FILLER_11_157
*452 FILLER_11_163
*453 FILLER_11_169
*454 FILLER_11_18
*455 FILLER_11_181
*456 FILLER_11_191
*457 FILLER_11_195
*458 FILLER_11_197
*459 FILLER_11_209
*460 FILLER_11_214
*461 FILLER_11_222
*462 FILLER_11_225
*463 FILLER_11_237
*464 FILLER_11_249
*465 FILLER_11_253
*466 FILLER_11_26
*467 FILLER_11_260
*468 FILLER_11_272
*469 FILLER_11_285
*470 FILLER_11_297
*471 FILLER_11_301
*472 FILLER_11_306
*473 FILLER_11_309
*474 FILLER_11_321
*475 FILLER_11_329
*476 FILLER_11_33
*477 FILLER_11_335
*478 FILLER_11_337
*479 FILLER_11_345
*480 FILLER_11_352
*481 FILLER_11_365
*482 FILLER_11_375
*483 FILLER_11_387
*484 FILLER_11_391
*485 FILLER_11_393
*486 FILLER_11_398
*487 FILLER_11_410
*488 FILLER_11_418
*489 FILLER_11_425
*490 FILLER_11_433
*491 FILLER_11_449
*492 FILLER_11_45
*493 FILLER_11_53
*494 FILLER_11_57
*495 FILLER_11_6
*496 FILLER_11_69
*497 FILLER_11_76
*498 FILLER_11_85
*499 FILLER_11_93
*500 FILLER_11_99
*501 FILLER_1_109
*502 FILLER_1_11
*503 FILLER_1_113
*504 FILLER_1_121
*505 FILLER_1_126
*506 FILLER_1_138
*507 FILLER_1_149
*508 FILLER_1_164
*509 FILLER_1_169
*510 FILLER_1_181
*511 FILLER_1_193
*512 FILLER_1_205
*513 FILLER_1_210
*514 FILLER_1_222
*515 FILLER_1_225
*516 FILLER_1_23
*517 FILLER_1_231
*518 FILLER_1_243
*519 FILLER_1_255
*520 FILLER_1_267
*521 FILLER_1_273
*522 FILLER_1_279
*523 FILLER_1_281
*524 FILLER_1_291
*525 FILLER_1_295
*526 FILLER_1_3
*527 FILLER_1_304
*528 FILLER_1_310
*529 FILLER_1_315
*530 FILLER_1_321
*531 FILLER_1_327
*532 FILLER_1_334
*533 FILLER_1_337
*534 FILLER_1_35
*535 FILLER_1_357
*536 FILLER_1_371
*537 FILLER_1_375
*538 FILLER_1_381
*539 FILLER_1_387
*540 FILLER_1_391
*541 FILLER_1_393
*542 FILLER_1_401
*543 FILLER_1_405
*544 FILLER_1_417
*545 FILLER_1_429
*546 FILLER_1_441
*547 FILLER_1_447
*548 FILLER_1_449
*549 FILLER_1_47
*550 FILLER_1_55
*551 FILLER_1_57
*552 FILLER_1_69
*553 FILLER_1_7
*554 FILLER_1_73
*555 FILLER_1_85
*556 FILLER_1_97
*557 FILLER_2_109
*558 FILLER_2_121
*559 FILLER_2_133
*560 FILLER_2_139
*561 FILLER_2_141
*562 FILLER_2_15
*563 FILLER_2_153
*564 FILLER_2_159
*565 FILLER_2_171
*566 FILLER_2_183
*567 FILLER_2_194
*568 FILLER_2_197
*569 FILLER_2_210
*570 FILLER_2_222
*571 FILLER_2_228
*572 FILLER_2_240
*573 FILLER_2_247
*574 FILLER_2_251
*575 FILLER_2_253
*576 FILLER_2_261
*577 FILLER_2_27
*578 FILLER_2_273
*579 FILLER_2_288
*580 FILLER_2_29
*581 FILLER_2_3
*582 FILLER_2_300
*583 FILLER_2_309
*584 FILLER_2_318
*585 FILLER_2_330
*586 FILLER_2_336
*587 FILLER_2_341
*588 FILLER_2_353
*589 FILLER_2_361
*590 FILLER_2_365
*591 FILLER_2_377
*592 FILLER_2_389
*593 FILLER_2_401
*594 FILLER_2_41
*595 FILLER_2_413
*596 FILLER_2_419
*597 FILLER_2_421
*598 FILLER_2_433
*599 FILLER_2_445
*600 FILLER_2_453
*601 FILLER_2_53
*602 FILLER_2_65
*603 FILLER_2_77
*604 FILLER_2_83
*605 FILLER_2_85
*606 FILLER_2_97
*607 FILLER_3_105
*608 FILLER_3_111
*609 FILLER_3_113
*610 FILLER_3_125
*611 FILLER_3_13
*612 FILLER_3_137
*613 FILLER_3_149
*614 FILLER_3_161
*615 FILLER_3_167
*616 FILLER_3_169
*617 FILLER_3_178
*618 FILLER_3_190
*619 FILLER_3_202
*620 FILLER_3_214
*621 FILLER_3_222
*622 FILLER_3_225
*623 FILLER_3_237
*624 FILLER_3_249
*625 FILLER_3_25
*626 FILLER_3_254
*627 FILLER_3_266
*628 FILLER_3_278
*629 FILLER_3_281
*630 FILLER_3_292
*631 FILLER_3_3
*632 FILLER_3_304
*633 FILLER_3_31
*634 FILLER_3_316
*635 FILLER_3_328
*636 FILLER_3_337
*637 FILLER_3_341
*638 FILLER_3_35
*639 FILLER_3_353
*640 FILLER_3_365
*641 FILLER_3_377
*642 FILLER_3_389
*643 FILLER_3_393
*644 FILLER_3_405
*645 FILLER_3_417
*646 FILLER_3_429
*647 FILLER_3_441
*648 FILLER_3_447
*649 FILLER_3_449
*650 FILLER_3_453
*651 FILLER_3_47
*652 FILLER_3_55
*653 FILLER_3_57
*654 FILLER_3_69
*655 FILLER_3_81
*656 FILLER_3_9
*657 FILLER_3_93
*658 FILLER_4_109
*659 FILLER_4_121
*660 FILLER_4_129
*661 FILLER_4_135
*662 FILLER_4_139
*663 FILLER_4_141
*664 FILLER_4_15
*665 FILLER_4_153
*666 FILLER_4_165
*667 FILLER_4_173
*668 FILLER_4_179
*669 FILLER_4_191
*670 FILLER_4_195
*671 FILLER_4_197
*672 FILLER_4_209
*673 FILLER_4_221
*674 FILLER_4_232
*675 FILLER_4_244
*676 FILLER_4_253
*677 FILLER_4_265
*678 FILLER_4_27
*679 FILLER_4_273
*680 FILLER_4_284
*681 FILLER_4_29
*682 FILLER_4_292
*683 FILLER_4_3
*684 FILLER_4_300
*685 FILLER_4_309
*686 FILLER_4_318
*687 FILLER_4_330
*688 FILLER_4_342
*689 FILLER_4_354
*690 FILLER_4_362
*691 FILLER_4_365
*692 FILLER_4_377
*693 FILLER_4_389
*694 FILLER_4_401
*695 FILLER_4_41
*696 FILLER_4_413
*697 FILLER_4_419
*698 FILLER_4_421
*699 FILLER_4_433
*700 FILLER_4_445
*701 FILLER_4_453
*702 FILLER_4_53
*703 FILLER_4_65
*704 FILLER_4_70
*705 FILLER_4_82
*706 FILLER_4_85
*707 FILLER_4_97
*708 FILLER_5_109
*709 FILLER_5_11
*710 FILLER_5_113
*711 FILLER_5_125
*712 FILLER_5_137
*713 FILLER_5_149
*714 FILLER_5_16
*715 FILLER_5_161
*716 FILLER_5_167
*717 FILLER_5_169
*718 FILLER_5_177
*719 FILLER_5_183
*720 FILLER_5_188
*721 FILLER_5_200
*722 FILLER_5_212
*723 FILLER_5_230
*724 FILLER_5_238
*725 FILLER_5_245
*726 FILLER_5_257
*727 FILLER_5_265
*728 FILLER_5_270
*729 FILLER_5_274
*730 FILLER_5_28
*731 FILLER_5_281
*732 FILLER_5_290
*733 FILLER_5_3
*734 FILLER_5_302
*735 FILLER_5_314
*736 FILLER_5_326
*737 FILLER_5_334
*738 FILLER_5_337
*739 FILLER_5_34
*740 FILLER_5_354
*741 FILLER_5_366
*742 FILLER_5_378
*743 FILLER_5_386
*744 FILLER_5_398
*745 FILLER_5_410
*746 FILLER_5_422
*747 FILLER_5_434
*748 FILLER_5_446
*749 FILLER_5_449
*750 FILLER_5_453
*751 FILLER_5_46
*752 FILLER_5_54
*753 FILLER_5_57
*754 FILLER_5_69
*755 FILLER_5_81
*756 FILLER_5_89
*757 FILLER_5_97
*758 FILLER_6_109
*759 FILLER_6_121
*760 FILLER_6_133
*761 FILLER_6_139
*762 FILLER_6_141
*763 FILLER_6_149
*764 FILLER_6_15
*765 FILLER_6_157
*766 FILLER_6_169
*767 FILLER_6_181
*768 FILLER_6_192
*769 FILLER_6_197
*770 FILLER_6_209
*771 FILLER_6_224
*772 FILLER_6_236
*773 FILLER_6_248
*774 FILLER_6_253
*775 FILLER_6_265
*776 FILLER_6_27
*777 FILLER_6_274
*778 FILLER_6_286
*779 FILLER_6_29
*780 FILLER_6_294
*781 FILLER_6_299
*782 FILLER_6_3
*783 FILLER_6_307
*784 FILLER_6_309
*785 FILLER_6_321
*786 FILLER_6_325
*787 FILLER_6_337
*788 FILLER_6_349
*789 FILLER_6_353
*790 FILLER_6_357
*791 FILLER_6_363
*792 FILLER_6_365
*793 FILLER_6_369
*794 FILLER_6_375
*795 FILLER_6_387
*796 FILLER_6_399
*797 FILLER_6_41
*798 FILLER_6_411
*799 FILLER_6_419
*800 FILLER_6_421
*801 FILLER_6_433
*802 FILLER_6_445
*803 FILLER_6_453
*804 FILLER_6_53
*805 FILLER_6_59
*806 FILLER_6_63
*807 FILLER_6_75
*808 FILLER_6_83
*809 FILLER_6_85
*810 FILLER_6_97
*811 FILLER_7_103
*812 FILLER_7_109
*813 FILLER_7_113
*814 FILLER_7_125
*815 FILLER_7_140
*816 FILLER_7_15
*817 FILLER_7_152
*818 FILLER_7_164
*819 FILLER_7_169
*820 FILLER_7_177
*821 FILLER_7_185
*822 FILLER_7_197
*823 FILLER_7_212
*824 FILLER_7_223
*825 FILLER_7_225
*826 FILLER_7_237
*827 FILLER_7_249
*828 FILLER_7_261
*829 FILLER_7_268
*830 FILLER_7_27
*831 FILLER_7_281
*832 FILLER_7_293
*833 FILLER_7_3
*834 FILLER_7_305
*835 FILLER_7_317
*836 FILLER_7_325
*837 FILLER_7_330
*838 FILLER_7_337
*839 FILLER_7_349
*840 FILLER_7_361
*841 FILLER_7_373
*842 FILLER_7_385
*843 FILLER_7_39
*844 FILLER_7_391
*845 FILLER_7_393
*846 FILLER_7_397
*847 FILLER_7_401
*848 FILLER_7_407
*849 FILLER_7_416
*850 FILLER_7_428
*851 FILLER_7_434
*852 FILLER_7_438
*853 FILLER_7_446
*854 FILLER_7_449
*855 FILLER_7_453
*856 FILLER_7_51
*857 FILLER_7_55
*858 FILLER_7_57
*859 FILLER_7_69
*860 FILLER_7_81
*861 FILLER_7_85
*862 FILLER_7_91
*863 FILLER_8_105
*864 FILLER_8_117
*865 FILLER_8_12
*866 FILLER_8_125
*867 FILLER_8_131
*868 FILLER_8_139
*869 FILLER_8_141
*870 FILLER_8_153
*871 FILLER_8_159
*872 FILLER_8_166
*873 FILLER_8_178
*874 FILLER_8_190
*875 FILLER_8_197
*876 FILLER_8_209
*877 FILLER_8_221
*878 FILLER_8_233
*879 FILLER_8_239
*880 FILLER_8_24
*881 FILLER_8_251
*882 FILLER_8_253
*883 FILLER_8_264
*884 FILLER_8_276
*885 FILLER_8_280
*886 FILLER_8_286
*887 FILLER_8_29
*888 FILLER_8_298
*889 FILLER_8_3
*890 FILLER_8_306
*891 FILLER_8_309
*892 FILLER_8_317
*893 FILLER_8_329
*894 FILLER_8_341
*895 FILLER_8_353
*896 FILLER_8_361
*897 FILLER_8_365
*898 FILLER_8_370
*899 FILLER_8_382
*900 FILLER_8_394
*901 FILLER_8_406
*902 FILLER_8_41
*903 FILLER_8_418
*904 FILLER_8_421
*905 FILLER_8_433
*906 FILLER_8_445
*907 FILLER_8_453
*908 FILLER_8_53
*909 FILLER_8_65
*910 FILLER_8_77
*911 FILLER_8_83
*912 FILLER_8_85
*913 FILLER_8_89
*914 FILLER_8_93
*915 FILLER_9_105
*916 FILLER_9_111
*917 FILLER_9_113
*918 FILLER_9_125
*919 FILLER_9_137
*920 FILLER_9_149
*921 FILLER_9_15
*922 FILLER_9_161
*923 FILLER_9_167
*924 FILLER_9_169
*925 FILLER_9_181
*926 FILLER_9_189
*927 FILLER_9_197
*928 FILLER_9_209
*929 FILLER_9_221
*930 FILLER_9_225
*931 FILLER_9_230
*932 FILLER_9_242
*933 FILLER_9_254
*934 FILLER_9_266
*935 FILLER_9_27
*936 FILLER_9_278
*937 FILLER_9_281
*938 FILLER_9_293
*939 FILLER_9_3
*940 FILLER_9_305
*941 FILLER_9_317
*942 FILLER_9_328
*943 FILLER_9_337
*944 FILLER_9_349
*945 FILLER_9_361
*946 FILLER_9_373
*947 FILLER_9_385
*948 FILLER_9_39
*949 FILLER_9_391
*950 FILLER_9_393
*951 FILLER_9_405
*952 FILLER_9_417
*953 FILLER_9_429
*954 FILLER_9_441
*955 FILLER_9_447
*956 FILLER_9_449
*957 FILLER_9_453
*958 FILLER_9_51
*959 FILLER_9_55
*960 FILLER_9_57
*961 FILLER_9_69
*962 FILLER_9_81
*963 FILLER_9_93
*964 PHY_EDGE_ROW_0_Left_12
*965 PHY_EDGE_ROW_0_Right_0
*966 PHY_EDGE_ROW_10_Left_22
*967 PHY_EDGE_ROW_10_Right_10
*968 PHY_EDGE_ROW_11_Left_23
*969 PHY_EDGE_ROW_11_Right_11
*970 PHY_EDGE_ROW_1_Left_13
*971 PHY_EDGE_ROW_1_Right_1
*972 PHY_EDGE_ROW_2_Left_14
*973 PHY_EDGE_ROW_2_Right_2
*974 PHY_EDGE_ROW_3_Left_15
*975 PHY_EDGE_ROW_3_Right_3
*976 PHY_EDGE_ROW_4_Left_16
*977 PHY_EDGE_ROW_4_Right_4
*978 PHY_EDGE_ROW_5_Left_17
*979 PHY_EDGE_ROW_5_Right_5
*980 PHY_EDGE_ROW_6_Left_18
*981 PHY_EDGE_ROW_6_Right_6
*982 PHY_EDGE_ROW_7_Left_19
*983 PHY_EDGE_ROW_7_Right_7
*984 PHY_EDGE_ROW_8_Left_20
*985 PHY_EDGE_ROW_8_Right_8
*986 PHY_EDGE_ROW_9_Left_21
*987 PHY_EDGE_ROW_9_Right_9
*988 TAP_TAPCELL_ROW_0_24
*989 TAP_TAPCELL_ROW_0_25
*990 TAP_TAPCELL_ROW_0_26
*991 TAP_TAPCELL_ROW_0_27
*992 TAP_TAPCELL_ROW_0_28
*993 TAP_TAPCELL_ROW_0_29
*994 TAP_TAPCELL_ROW_0_30
*995 TAP_TAPCELL_ROW_0_31
*996 TAP_TAPCELL_ROW_0_32
*997 TAP_TAPCELL_ROW_0_33
*998 TAP_TAPCELL_ROW_0_34
*999 TAP_TAPCELL_ROW_0_35
*1000 TAP_TAPCELL_ROW_0_36
*1001 TAP_TAPCELL_ROW_0_37
*1002 TAP_TAPCELL_ROW_0_38
*1003 TAP_TAPCELL_ROW_0_39
*1004 TAP_TAPCELL_ROW_10_112
*1005 TAP_TAPCELL_ROW_10_113
*1006 TAP_TAPCELL_ROW_10_114
*1007 TAP_TAPCELL_ROW_10_115
*1008 TAP_TAPCELL_ROW_10_116
*1009 TAP_TAPCELL_ROW_10_117
*1010 TAP_TAPCELL_ROW_10_118
*1011 TAP_TAPCELL_ROW_10_119
*1012 TAP_TAPCELL_ROW_11_120
*1013 TAP_TAPCELL_ROW_11_121
*1014 TAP_TAPCELL_ROW_11_122
*1015 TAP_TAPCELL_ROW_11_123
*1016 TAP_TAPCELL_ROW_11_124
*1017 TAP_TAPCELL_ROW_11_125
*1018 TAP_TAPCELL_ROW_11_126
*1019 TAP_TAPCELL_ROW_11_127
*1020 TAP_TAPCELL_ROW_11_128
*1021 TAP_TAPCELL_ROW_11_129
*1022 TAP_TAPCELL_ROW_11_130
*1023 TAP_TAPCELL_ROW_11_131
*1024 TAP_TAPCELL_ROW_11_132
*1025 TAP_TAPCELL_ROW_11_133
*1026 TAP_TAPCELL_ROW_11_134
*1027 TAP_TAPCELL_ROW_11_135
*1028 TAP_TAPCELL_ROW_1_40
*1029 TAP_TAPCELL_ROW_1_41
*1030 TAP_TAPCELL_ROW_1_42
*1031 TAP_TAPCELL_ROW_1_43
*1032 TAP_TAPCELL_ROW_1_44
*1033 TAP_TAPCELL_ROW_1_45
*1034 TAP_TAPCELL_ROW_1_46
*1035 TAP_TAPCELL_ROW_1_47
*1036 TAP_TAPCELL_ROW_2_48
*1037 TAP_TAPCELL_ROW_2_49
*1038 TAP_TAPCELL_ROW_2_50
*1039 TAP_TAPCELL_ROW_2_51
*1040 TAP_TAPCELL_ROW_2_52
*1041 TAP_TAPCELL_ROW_2_53
*1042 TAP_TAPCELL_ROW_2_54
*1043 TAP_TAPCELL_ROW_2_55
*1044 TAP_TAPCELL_ROW_3_56
*1045 TAP_TAPCELL_ROW_3_57
*1046 TAP_TAPCELL_ROW_3_58
*1047 TAP_TAPCELL_ROW_3_59
*1048 TAP_TAPCELL_ROW_3_60
*1049 TAP_TAPCELL_ROW_3_61
*1050 TAP_TAPCELL_ROW_3_62
*1051 TAP_TAPCELL_ROW_3_63
*1052 TAP_TAPCELL_ROW_4_64
*1053 TAP_TAPCELL_ROW_4_65
*1054 TAP_TAPCELL_ROW_4_66
*1055 TAP_TAPCELL_ROW_4_67
*1056 TAP_TAPCELL_ROW_4_68
*1057 TAP_TAPCELL_ROW_4_69
*1058 TAP_TAPCELL_ROW_4_70
*1059 TAP_TAPCELL_ROW_4_71
*1060 TAP_TAPCELL_ROW_5_72
*1061 TAP_TAPCELL_ROW_5_73
*1062 TAP_TAPCELL_ROW_5_74
*1063 TAP_TAPCELL_ROW_5_75
*1064 TAP_TAPCELL_ROW_5_76
*1065 TAP_TAPCELL_ROW_5_77
*1066 TAP_TAPCELL_ROW_5_78
*1067 TAP_TAPCELL_ROW_5_79
*1068 TAP_TAPCELL_ROW_6_80
*1069 TAP_TAPCELL_ROW_6_81
*1070 TAP_TAPCELL_ROW_6_82
*1071 TAP_TAPCELL_ROW_6_83
*1072 TAP_TAPCELL_ROW_6_84
*1073 TAP_TAPCELL_ROW_6_85
*1074 TAP_TAPCELL_ROW_6_86
*1075 TAP_TAPCELL_ROW_6_87
*1076 TAP_TAPCELL_ROW_7_88
*1077 TAP_TAPCELL_ROW_7_89
*1078 TAP_TAPCELL_ROW_7_90
*1079 TAP_TAPCELL_ROW_7_91
*1080 TAP_TAPCELL_ROW_7_92
*1081 TAP_TAPCELL_ROW_7_93
*1082 TAP_TAPCELL_ROW_7_94
*1083 TAP_TAPCELL_ROW_7_95
*1084 TAP_TAPCELL_ROW_8_100
*1085 TAP_TAPCELL_ROW_8_101
*1086 TAP_TAPCELL_ROW_8_102
*1087 TAP_TAPCELL_ROW_8_103
*1088 TAP_TAPCELL_ROW_8_96
*1089 TAP_TAPCELL_ROW_8_97
*1090 TAP_TAPCELL_ROW_8_98
*1091 TAP_TAPCELL_ROW_8_99
*1092 TAP_TAPCELL_ROW_9_104
*1093 TAP_TAPCELL_ROW_9_105
*1094 TAP_TAPCELL_ROW_9_106
*1095 TAP_TAPCELL_ROW_9_107
*1096 TAP_TAPCELL_ROW_9_108
*1097 TAP_TAPCELL_ROW_9_109
*1098 TAP_TAPCELL_ROW_9_110
*1099 TAP_TAPCELL_ROW_9_111
*1100 _000_
*1101 _001_
*1102 _002_
*1103 _003_
*1104 _004_
*1105 _005_
*1106 _006_
*1107 _007_
*1108 _008_
*1109 _009_
*1110 _010_
*1111 _011_
*1112 _012_
*1113 _013_
*1114 _014_
*1115 _015_
*1116 _016_
*1117 _017_
*1118 _018_
*1119 _019_
*1120 _020_
*1121 _021_
*1122 _022_
*1123 _023_
*1124 _024_
*1125 _025_
*1126 _026_
*1127 _027_
*1128 _028_
*1129 _029_
*1130 _030_
*1131 _031_
*1132 _032_
*1133 _033_
*1134 _034_
*1135 _035_
*1136 _036_
*1137 _037_
*1138 _038_
*1139 _039_
*1140 _040_
*1141 _041_
*1142 _042_
*1143 _043_
*1144 _044_
*1145 _045_
*1146 _046_
*1147 _047_
*1148 _048_
*1149 _049_
*1150 _050_
*1151 _051_
*1152 _052_
*1153 _053_
*1154 _054_
*1155 _055_
*1156 _056_
*1157 _057_
*1158 _058_
*1159 _059_
*1160 _060_
*1161 _061_
*1162 _062_
*1163 _063_
*1164 _064_
*1165 _065_
*1166 _066_
*1167 _067_
*1168 _068_
*1169 _069_
*1170 _070_
*1171 _071_
*1172 _072_
*1173 _073_
*1174 _074_
*1175 _075_
*1176 _076_
*1177 _077_
*1178 _078_
*1179 _079_
*1180 _080_
*1181 _081_
*1182 _082_
*1183 _083_
*1184 _084_
*1185 _085_
*1186 _086_
*1187 _087_
*1188 _088_
*1189 _089_
*1190 _090_
*1191 _091_
*1192 _092_
*1193 _093_
*1194 _094_
*1195 _095_
*1196 _096_
*1197 _097_
*1198 _098_
*1199 _099_
*1200 _100_
*1201 _101_
*1202 _102_
*1203 _103_
*1204 _104_
*1205 output1
*1206 output10
*1207 output100
*1208 output101
*1209 output102
*1210 output103
*1211 output104
*1212 output105
*1213 output11
*1214 output12
*1215 output13
*1216 output14
*1217 output15
*1218 output16
*1219 output17
*1220 output18
*1221 output19
*1222 output2
*1223 output20
*1224 output21
*1225 output22
*1226 output23
*1227 output24
*1228 output25
*1229 output26
*1230 output27
*1231 output28
*1232 output29
*1233 output3
*1234 output30
*1235 output31
*1236 output32
*1237 output33
*1238 output34
*1239 output35
*1240 output36
*1241 output37
*1242 output38
*1243 output39
*1244 output4
*1245 output40
*1246 output41
*1247 output42
*1248 output43
*1249 output44
*1250 output45
*1251 output46
*1252 output47
*1253 output48
*1254 output49
*1255 output5
*1256 output50
*1257 output51
*1258 output52
*1259 output53
*1260 output54
*1261 output55
*1262 output56
*1263 output57
*1264 output58
*1265 output59
*1266 output6
*1267 output60
*1268 output61
*1269 output62
*1270 output63
*1271 output64
*1272 output65
*1273 output66
*1274 output67
*1275 output68
*1276 output69
*1277 output7
*1278 output70
*1279 output71
*1280 output72
*1281 output73
*1282 output74
*1283 output75
*1284 output76
*1285 output77
*1286 output78
*1287 output79
*1288 output8
*1289 output80
*1290 output81
*1291 output82
*1292 output83
*1293 output84
*1294 output85
*1295 output86
*1296 output87
*1297 output88
*1298 output89
*1299 output9
*1300 output90
*1301 output91
*1302 output92
*1303 output93
*1304 output94
*1305 output95
*1306 output96
*1307 output97
*1308 output98
*1309 output99

*PORTS
FrameData[0] I
FrameData[10] I
FrameData[11] I
FrameData[12] I
FrameData[13] I
FrameData[14] I
FrameData[15] I
FrameData[16] I
FrameData[17] I
FrameData[18] I
FrameData[19] I
FrameData[1] I
FrameData[20] I
FrameData[21] I
FrameData[22] I
FrameData[23] I
FrameData[24] I
FrameData[25] I
FrameData[26] I
FrameData[27] I
FrameData[28] I
FrameData[29] I
FrameData[2] I
FrameData[30] I
FrameData[31] I
FrameData[3] I
FrameData[4] I
FrameData[5] I
FrameData[6] I
FrameData[7] I
FrameData[8] I
FrameData[9] I
FrameData_O[0] O
FrameData_O[10] O
FrameData_O[11] O
FrameData_O[12] O
FrameData_O[13] O
FrameData_O[14] O
FrameData_O[15] O
FrameData_O[16] O
FrameData_O[17] O
FrameData_O[18] O
FrameData_O[19] O
FrameData_O[1] O
FrameData_O[20] O
FrameData_O[21] O
FrameData_O[22] O
FrameData_O[23] O
FrameData_O[24] O
FrameData_O[25] O
FrameData_O[26] O
FrameData_O[27] O
FrameData_O[28] O
FrameData_O[29] O
FrameData_O[2] O
FrameData_O[30] O
FrameData_O[31] O
FrameData_O[3] O
FrameData_O[4] O
FrameData_O[5] O
FrameData_O[6] O
FrameData_O[7] O
FrameData_O[8] O
FrameData_O[9] O
FrameStrobe[0] I
FrameStrobe[10] I
FrameStrobe[11] I
FrameStrobe[12] I
FrameStrobe[13] I
FrameStrobe[14] I
FrameStrobe[15] I
FrameStrobe[16] I
FrameStrobe[17] I
FrameStrobe[18] I
FrameStrobe[19] I
FrameStrobe[1] I
FrameStrobe[2] I
FrameStrobe[3] I
FrameStrobe[4] I
FrameStrobe[5] I
FrameStrobe[6] I
FrameStrobe[7] I
FrameStrobe[8] I
FrameStrobe[9] I
FrameStrobe_O[0] O
FrameStrobe_O[10] O
FrameStrobe_O[11] O
FrameStrobe_O[12] O
FrameStrobe_O[13] O
FrameStrobe_O[14] O
FrameStrobe_O[15] O
FrameStrobe_O[16] O
FrameStrobe_O[17] O
FrameStrobe_O[18] O
FrameStrobe_O[19] O
FrameStrobe_O[1] O
FrameStrobe_O[2] O
FrameStrobe_O[3] O
FrameStrobe_O[4] O
FrameStrobe_O[5] O
FrameStrobe_O[6] O
FrameStrobe_O[7] O
FrameStrobe_O[8] O
FrameStrobe_O[9] O
N1END[0] I
N1END[1] I
N1END[2] I
N1END[3] I
N2END[0] I
N2END[1] I
N2END[2] I
N2END[3] I
N2END[4] I
N2END[5] I
N2END[6] I
N2END[7] I
N2MID[0] I
N2MID[1] I
N2MID[2] I
N2MID[3] I
N2MID[4] I
N2MID[5] I
N2MID[6] I
N2MID[7] I
N4END[0] I
N4END[10] I
N4END[11] I
N4END[12] I
N4END[13] I
N4END[14] I
N4END[15] I
N4END[1] I
N4END[2] I
N4END[3] I
N4END[4] I
N4END[5] I
N4END[6] I
N4END[7] I
N4END[8] I
N4END[9] I
NN4END[0] I
NN4END[10] I
NN4END[11] I
NN4END[12] I
NN4END[13] I
NN4END[14] I
NN4END[15] I
NN4END[1] I
NN4END[2] I
NN4END[3] I
NN4END[4] I
NN4END[5] I
NN4END[6] I
NN4END[7] I
NN4END[8] I
NN4END[9] I
S1BEG[0] O
S1BEG[1] O
S1BEG[2] O
S1BEG[3] O
S2BEG[0] O
S2BEG[1] O
S2BEG[2] O
S2BEG[3] O
S2BEG[4] O
S2BEG[5] O
S2BEG[6] O
S2BEG[7] O
S2BEGb[0] O
S2BEGb[1] O
S2BEGb[2] O
S2BEGb[3] O
S2BEGb[4] O
S2BEGb[5] O
S2BEGb[6] O
S2BEGb[7] O
S4BEG[0] O
S4BEG[10] O
S4BEG[11] O
S4BEG[12] O
S4BEG[13] O
S4BEG[14] O
S4BEG[15] O
S4BEG[1] O
S4BEG[2] O
S4BEG[3] O
S4BEG[4] O
S4BEG[5] O
S4BEG[6] O
S4BEG[7] O
S4BEG[8] O
S4BEG[9] O
SS4BEG[0] O
SS4BEG[10] O
SS4BEG[11] O
SS4BEG[12] O
SS4BEG[13] O
SS4BEG[14] O
SS4BEG[15] O
SS4BEG[1] O
SS4BEG[2] O
SS4BEG[3] O
SS4BEG[4] O
SS4BEG[5] O
SS4BEG[6] O
SS4BEG[7] O
SS4BEG[8] O
SS4BEG[9] O
UserCLK I
UserCLKo O

*D_NET *1 0.0215071
*CONN
*P FrameData[0] I
*I *1100:A I *D sky130_fd_sc_hd__buf_1
*CAP
1 FrameData[0] 0.00134426
2 *1100:A 0.000264302
3 *1:13 0.00414564
4 *1:11 0.00522559
5 *1100:A *9:21 0.000140203
6 *1100:A *27:13 0.0013575
7 *1100:A *135:11 3.7681e-05
8 *1100:A *291:10 0.00135262
9 *1100:A *304:10 1.03836e-05
10 *1:11 *2:11 6.10551e-06
11 *1:11 *3:11 0
12 *1:11 *5:13 0
13 *1:11 *12:11 0.000263196
14 *1:11 *32:15 0
15 *1:13 *9:21 0.000132651
16 *1:13 *27:13 0.000369942
17 *1:13 *28:21 0.00155599
18 *1:13 *112:9 0.000632683
19 *1:13 *119:9 9.91798e-05
20 *1:13 *135:11 0.00305833
21 *1:13 *277:10 4.02798e-05
22 *1:13 *304:10 0.00147053
*RES
1 FrameData[0] *1:11 46.7318 
2 *1:11 *1:13 91.6193 
3 *1:13 *1100:A 38.7636 
*END

*D_NET *2 0.028883
*CONN
*P FrameData[10] I
*I *1110:A I *D sky130_fd_sc_hd__buf_1
*CAP
1 FrameData[10] 0.000147762
2 *1110:A 0
3 *2:19 0.000515193
4 *2:13 0.00364893
5 *2:11 0.0032815
6 *2:11 *3:11 0.000333324
7 *2:11 *32:15 0.000330253
8 *2:13 *341:DIODE 0.000140259
9 *2:13 *1154:A 0.000543977
10 *2:13 *1156:A 0.00202741
11 *2:13 *1202:A 5.50049e-05
12 *2:13 *1203:A 0.00100364
13 *2:13 *3:13 0.0118444
14 *2:13 *5:13 0.000771151
15 *2:13 *234:12 0.000794609
16 *2:13 *269:6 0.00129873
17 *2:13 *287:12 0.00146106
18 *2:13 *288:16 0.000262592
19 *2:13 *291:24 0.000301174
20 *2:13 *312:10 9.36522e-05
21 *2:13 *313:8 2.23248e-05
22 *2:19 *241:12 0
23 *2:19 *247:18 0
24 *2:19 *304:24 0
25 *1:11 *2:11 6.10551e-06
*RES
1 FrameData[10] *2:11 24.4523 
2 *2:11 *2:13 140.691 
3 *2:13 *2:19 37.8921 
4 *2:19 *1110:A 23 
*END

*D_NET *3 0.0315461
*CONN
*P FrameData[11] I
*I *1111:A I *D sky130_fd_sc_hd__buf_1
*I *318:DIODE I *D sky130_fd_sc_hd__diode_2
*CAP
1 FrameData[11] 0.000212383
2 *1111:A 7.94007e-06
3 *318:DIODE 7.94007e-06
4 *3:21 0.000395963
5 *3:13 0.00860583
6 *3:11 0.00842225
7 *1111:A *1284:A 5.79559e-05
8 *1111:A *300:16 5.79559e-05
9 *3:11 *4:15 0.000352168
10 *3:11 *5:13 0
11 *3:11 *32:15 1.10188e-05
12 *3:13 *5:13 0.00045183
13 *3:21 *345:DIODE 1.21972e-05
14 *3:21 *1284:A 0.000230543
15 *3:21 *128:15 0.000209598
16 *3:21 *234:8 1.01436e-05
17 *3:21 *238:12 0.00021915
18 *3:21 *300:16 0.000103478
19 *1:11 *3:11 0
20 *2:11 *3:11 0.000333324
21 *2:13 *3:13 0.0118444
*RES
1 FrameData[11] *3:11 25.2424 
2 *3:11 *3:13 131.163 
3 *3:13 *3:21 39.3629 
4 *3:21 *318:DIODE 23 
5 *318:DIODE *1111:A 46.6214 
*END

*D_NET *4 0.0256893
*CONN
*P FrameData[12] I
*I *1112:A I *D sky130_fd_sc_hd__buf_1
*I *329:DIODE I *D sky130_fd_sc_hd__diode_2
*CAP
1 FrameData[12] 0.00642289
2 *1112:A 2.10467e-05
3 *329:DIODE 0.00017449
4 *4:15 0.00657634
5 *329:DIODE *78:23 0.000617571
6 *329:DIODE *263:6 0.00044458
7 *1112:A *78:23 5.67058e-05
8 *4:15 *340:DIODE 0.000171944
9 *4:15 *5:13 0.00381094
10 *4:15 *6:9 9.51008e-05
11 *4:15 *7:15 0.00151858
12 *4:15 *23:17 0.000101059
13 *4:15 *32:15 0
14 *4:15 *109:15 0.000110155
15 *4:15 *209:15 0.00494682
16 *4:15 *268:12 0.000268925
17 *4:15 *287:30 0
18 *4:15 *288:16 0
19 *3:11 *4:15 0.000352168
*RES
1 FrameData[12] *4:15 49.9629 
2 *4:15 *329:DIODE 29.815 
3 *329:DIODE *1112:A 46.6214 
*END

*D_NET *5 0.0274364
*CONN
*P FrameData[13] I
*I *1113:A I *D sky130_fd_sc_hd__buf_1
*I *340:DIODE I *D sky130_fd_sc_hd__diode_2
*CAP
1 FrameData[13] 0.00554453
2 *1113:A 2.10467e-05
3 *340:DIODE 0.000128139
4 *5:13 0.00565162
5 *340:DIODE *287:30 4.05863e-05
6 *1113:A *78:23 5.67058e-05
7 *5:13 *6:9 0.000465009
8 *5:13 *30:13 0.0102044
9 *5:13 *31:13 9.43987e-05
10 *5:13 *32:15 1.41966e-05
11 *5:13 *209:15 9.81333e-06
12 *5:13 *268:8 0
13 *1:11 *5:13 0
14 *2:13 *5:13 0.000771151
15 *3:11 *5:13 0
16 *3:13 *5:13 0.00045183
17 *4:15 *340:DIODE 0.000171944
18 *4:15 *5:13 0.00381094
*RES
1 FrameData[13] *5:13 42.3376 
2 *5:13 *340:DIODE 48.4339 
3 *340:DIODE *1113:A 46.6214 
*END

*D_NET *6 0.0212452
*CONN
*P FrameData[14] I