*SPEF "ieee 1481-1999"
*DESIGN "N_term_single2"
*DATE "21:23:48 Thursday April 03, 2025"
*VENDOR "The OpenROAD Project"
*PROGRAM "OpenROAD"
*VERSION "87af90f72f3f9be1fdfa1d886f0dd8d8b8f34694"
*DESIGN_FLOW "NAME_SCOPE LOCAL" "PIN_CAP NONE"
*DIVIDER /
*DELIMITER :
*BUS_DELIMITER []
*T_UNIT 1 NS
*C_UNIT 1 PF
*R_UNIT 1 OHM
*L_UNIT 1 HENRY

*NAME_MAP
*1 FrameData[0]
*2 FrameData[10]
*3 FrameData[11]
*4 FrameData[12]
*5 FrameData[13]
*6 FrameData[14]
*7 FrameData[15]
*8 FrameData[16]
*9 FrameData[17]
*10 FrameData[18]
*11 FrameData[19]
*12 FrameData[1]
*13 FrameData[20]
*14 FrameData[21]
*15 FrameData[22]
*16 FrameData[23]
*17 FrameData[24]
*18 FrameData[25]
*19 FrameData[26]
*20 FrameData[27]
*21 FrameData[28]
*22 FrameData[29]
*23 FrameData[2]
*24 FrameData[30]
*25 FrameData[31]
*26 FrameData[3]
*27 FrameData[4]
*28 FrameData[5]
*29 FrameData[6]
*30 FrameData[7]
*31 FrameData[8]
*32 FrameData[9]
*33 FrameData_O[0]
*34 FrameData_O[10]
*35 FrameData_O[11]
*36 FrameData_O[12]
*37 FrameData_O[13]
*38 FrameData_O[14]
*39 FrameData_O[15]
*40 FrameData_O[16]
*41 FrameData_O[17]
*42 FrameData_O[18]
*43 FrameData_O[19]
*44 FrameData_O[1]
*45 FrameData_O[20]
*46 FrameData_O[21]
*47 FrameData_O[22]
*48 FrameData_O[23]
*49 FrameData_O[24]
*50 FrameData_O[25]
*51 FrameData_O[26]
*52 FrameData_O[27]
*53 FrameData_O[28]
*54 FrameData_O[29]
*55 FrameData_O[2]
*56 FrameData_O[30]
*57 FrameData_O[31]
*58 FrameData_O[3]
*59 FrameData_O[4]
*60 FrameData_O[5]
*61 FrameData_O[6]
*62 FrameData_O[7]
*63 FrameData_O[8]
*64 FrameData_O[9]
*65 FrameStrobe[0]
*66 FrameStrobe[10]
*67 FrameStrobe[11]
*68 FrameStrobe[12]
*69 FrameStrobe[13]
*70 FrameStrobe[14]
*71 FrameStrobe[15]
*72 FrameStrobe[16]
*73 FrameStrobe[17]
*74 FrameStrobe[18]
*75 FrameStrobe[19]
*76 FrameStrobe[1]
*77 FrameStrobe[2]
*78 FrameStrobe[3]
*79 FrameStrobe[4]
*80 FrameStrobe[5]
*81 FrameStrobe[6]
*82 FrameStrobe[7]
*83 FrameStrobe[8]
*84 FrameStrobe[9]
*85 FrameStrobe_O[0]
*86 FrameStrobe_O[10]
*87 FrameStrobe_O[11]
*88 FrameStrobe_O[12]
*89 FrameStrobe_O[13]
*90 FrameStrobe_O[14]
*91 FrameStrobe_O[15]
*92 FrameStrobe_O[16]
*93 FrameStrobe_O[17]
*94 FrameStrobe_O[18]
*95 FrameStrobe_O[19]
*96 FrameStrobe_O[1]
*97 FrameStrobe_O[2]
*98 FrameStrobe_O[3]
*99 FrameStrobe_O[4]
*100 FrameStrobe_O[5]
*101 FrameStrobe_O[6]
*102 FrameStrobe_O[7]
*103 FrameStrobe_O[8]
*104 FrameStrobe_O[9]
*105 N1END[0]
*106 N1END[1]
*107 N1END[2]
*108 N1END[3]
*109 N2END[0]
*110 N2END[1]
*111 N2END[2]
*112 N2END[3]
*113 N2END[4]
*114 N2END[5]
*115 N2END[6]
*116 N2END[7]
*117 N2MID[0]
*118 N2MID[1]
*119 N2MID[2]
*120 N2MID[3]
*121 N2MID[4]
*122 N2MID[5]
*123 N2MID[6]
*124 N2MID[7]
*125 N4END[0]
*126 N4END[10]
*127 N4END[11]
*128 N4END[12]
*129 N4END[13]
*130 N4END[14]
*131 N4END[15]
*132 N4END[1]
*133 N4END[2]
*134 N4END[3]
*135 N4END[4]
*136 N4END[5]
*137 N4END[6]
*138 N4END[7]
*139 N4END[8]
*140 N4END[9]
*141 NN4END[0]
*142 NN4END[10]
*143 NN4END[11]
*144 NN4END[12]
*145 NN4END[13]
*146 NN4END[14]
*147 NN4END[15]
*148 NN4END[1]
*149 NN4END[2]
*150 NN4END[3]
*151 NN4END[4]
*152 NN4END[5]
*153 NN4END[6]
*154 NN4END[7]
*155 NN4END[8]
*156 NN4END[9]
*157 S1BEG[0]
*158 S1BEG[1]
*159 S1BEG[2]
*160 S1BEG[3]
*161 S2BEG[0]
*162 S2BEG[1]
*163 S2BEG[2]
*164 S2BEG[3]
*165 S2BEG[4]
*166 S2BEG[5]
*167 S2BEG[6]
*168 S2BEG[7]
*169 S2BEGb[0]
*170 S2BEGb[1]
*171 S2BEGb[2]
*172 S2BEGb[3]
*173 S2BEGb[4]
*174 S2BEGb[5]
*175 S2BEGb[6]
*176 S2BEGb[7]
*177 S4BEG[0]
*178 S4BEG[10]
*179 S4BEG[11]
*180 S4BEG[12]
*181 S4BEG[13]
*182 S4BEG[14]
*183 S4BEG[15]
*184 S4BEG[1]
*185 S4BEG[2]
*186 S4BEG[3]
*187 S4BEG[4]
*188 S4BEG[5]
*189 S4BEG[6]
*190 S4BEG[7]
*191 S4BEG[8]
*192 S4BEG[9]
*193 SS4BEG[0]
*194 SS4BEG[10]
*195 SS4BEG[11]
*196 SS4BEG[12]
*197 SS4BEG[13]
*198 SS4BEG[14]
*199 SS4BEG[15]
*200 SS4BEG[1]
*201 SS4BEG[2]
*202 SS4BEG[3]
*203 SS4BEG[4]
*204 SS4BEG[5]
*205 SS4BEG[6]
*206 SS4BEG[7]
*207 SS4BEG[8]
*208 SS4BEG[9]
*209 UserCLK
*210 UserCLKo
*213 net1
*214 net10
*215 net100
*216 net101
*217 net102
*218 net103
*219 net104
*220 net105
*221 net11
*222 net12
*223 net13
*224 net14
*225 net15
*226 net16
*227 net17
*228 net18
*229 net19
*230 net2
*231 net20
*232 net21
*233 net22
*234 net23
*235 net24
*236 net25
*237 net26
*238 net27
*239 net28
*240 net29
*241 net3
*242 net30
*243 net31
*244 net32
*245 net33
*246 net34
*247 net35
*248 net36
*249 net37
*250 net38
*251 net39
*252 net4
*253 net40
*254 net41
*255 net42
*256 net43
*257 net44
*258 net45
*259 net46
*260 net47
*261 net48
*262 net49
*263 net5
*264 net50
*265 net51
*266 net52
*267 net53
*268 net54
*269 net55
*270 net56
*271 net57
*272 net58
*273 net59
*274 net6
*275 net60
*276 net61
*277 net62
*278 net63
*279 net64
*280 net65
*281 net66
*282 net67
*283 net68
*284 net69
*285 net7
*286 net70
*287 net71
*288 net72
*289 net73
*290 net74
*291 net75
*292 net76
*293 net77
*294 net78
*295 net79
*296 net8
*297 net80
*298 net81
*299 net82
*300 net83
*301 net84
*302 net85
*303 net86
*304 net87
*305 net88
*306 net89
*307 net9
*308 net90
*309 net91
*310 net92
*311 net93
*312 net94
*313 net95
*314 net96
*315 net97
*316 net98
*317 net99
*318 ANTENNA_1
*319 ANTENNA_10
*320 ANTENNA_11
*321 ANTENNA_12
*322 ANTENNA_13
*323 ANTENNA_14
*324 ANTENNA_15
*325 ANTENNA_16
*326 ANTENNA_17
*327 ANTENNA_18
*328 ANTENNA_19
*329 ANTENNA_2
*330 ANTENNA_20
*331 ANTENNA_21
*332 ANTENNA_22
*333 ANTENNA_23
*334 ANTENNA_24
*335 ANTENNA_25
*336 ANTENNA_26
*337 ANTENNA_27
*338 ANTENNA_28
*339 ANTENNA_29
*340 ANTENNA_3
*341 ANTENNA_30
*342 ANTENNA_31
*343 ANTENNA_32
*344 ANTENNA_33
*345 ANTENNA_34
*346 ANTENNA_35
*347 ANTENNA_36
*348 ANTENNA_37
*349 ANTENNA_38
*350 ANTENNA_39
*351 ANTENNA_4
*352 ANTENNA_40
*353 ANTENNA_41
*354 ANTENNA_42
*355 ANTENNA_43
*356 ANTENNA_44
*357 ANTENNA_45
*358 ANTENNA_46
*359 ANTENNA_47
*360 ANTENNA_48
*361 ANTENNA_49
*362 ANTENNA_5
*363 ANTENNA_50
*364 ANTENNA_51
*365 ANTENNA_52
*366 ANTENNA_53
*367 ANTENNA_54
*368 ANTENNA_55
*369 ANTENNA_56
*370 ANTENNA_6
*371 ANTENNA_7
*372 ANTENNA_8
*373 ANTENNA_9
*374 FILLER_0_0
*375 FILLER_0_105
*376 FILLER_0_112
*377 FILLER_0_119
*378 FILLER_0_126
*379 FILLER_0_133
*380 FILLER_0_14
*381 FILLER_0_140
*382 FILLER_0_147
*383 FILLER_0_154
*384 FILLER_0_161
*385 FILLER_0_168
*386 FILLER_0_175
*387 FILLER_0_182
*388 FILLER_0_189
*389 FILLER_0_196
*390 FILLER_0_203
*391 FILLER_0_21
*392 FILLER_0_210
*393 FILLER_0_217
*394 FILLER_0_224
*395 FILLER_0_28
*396 FILLER_0_35
*397 FILLER_0_42
*398 FILLER_0_433
*399 FILLER_0_440
*400 FILLER_0_447
*401 FILLER_0_454
*402 FILLER_0_461
*403 FILLER_0_468
*404 FILLER_0_475
*405 FILLER_0_482
*406 FILLER_0_489
*407 FILLER_0_49
*408 FILLER_0_523
*409 FILLER_0_56
*410 FILLER_0_63
*411 FILLER_0_7
*412 FILLER_0_70
*413 FILLER_0_77
*414 FILLER_0_84
*415 FILLER_0_91
*416 FILLER_0_98
*417 FILLER_10_0
*418 FILLER_10_105
*419 FILLER_10_112
*420 FILLER_10_119
*421 FILLER_10_126
*422 FILLER_10_128
*423 FILLER_10_14
*424 FILLER_10_140
*425 FILLER_10_147
*426 FILLER_10_156
*427 FILLER_10_163
*428 FILLER_10_170
*429 FILLER_10_177
*430 FILLER_10_179
*431 FILLER_10_184
*432 FILLER_10_191
*433 FILLER_10_198
*434 FILLER_10_209
*435 FILLER_10_21
*436 FILLER_10_216
*437 FILLER_10_223
*438 FILLER_10_227
*439 FILLER_10_233
*440 FILLER_10_239
*441 FILLER_10_246
*442 FILLER_10_250
*443 FILLER_10_256
*444 FILLER_10_264
*445 FILLER_10_269
*446 FILLER_10_276
*447 FILLER_10_28
*448 FILLER_10_282
*449 FILLER_10_286
*450 FILLER_10_292
*451 FILLER_10_296
*452 FILLER_10_301
*453 FILLER_10_306
*454 FILLER_10_313
*455 FILLER_10_320
*456 FILLER_10_327
*457 FILLER_10_334
*458 FILLER_10_341
*459 FILLER_10_348
*460 FILLER_10_35
*461 FILLER_10_355
*462 FILLER_10_362
*463 FILLER_10_369
*464 FILLER_10_376
*465 FILLER_10_383
*466 FILLER_10_390
*467 FILLER_10_397
*468 FILLER_10_404
*469 FILLER_10_409
*470 FILLER_10_415
*471 FILLER_10_419
*472 FILLER_10_42
*473 FILLER_10_425
*474 FILLER_10_429
*475 FILLER_10_435
*476 FILLER_10_439
*477 FILLER_10_444
*478 FILLER_10_450
*479 FILLER_10_454
*480 FILLER_10_460
*481 FILLER_10_467
*482 FILLER_10_473
*483 FILLER_10_482
*484 FILLER_10_489
*485 FILLER_10_49
*486 FILLER_10_498
*487 FILLER_10_505
*488 FILLER_10_509
*489 FILLER_10_522
*490 FILLER_10_56
*491 FILLER_10_63
*492 FILLER_10_7
*493 FILLER_10_70
*494 FILLER_10_77
*495 FILLER_10_84
*496 FILLER_10_91
*497 FILLER_10_98
*498 FILLER_11_0
*499 FILLER_11_101
*500 FILLER_11_108
*501 FILLER_11_113
*502 FILLER_11_120
*503 FILLER_11_127
*504 FILLER_11_134
*505 FILLER_11_139
*506 FILLER_11_146
*507 FILLER_11_153
*508 FILLER_11_16
*509 FILLER_11_160
*510 FILLER_11_165
*511 FILLER_11_172
*512 FILLER_11_179
*513 FILLER_11_186
*514 FILLER_11_191
*515 FILLER_11_198
*516 FILLER_11_205
*517 FILLER_11_212
*518 FILLER_11_217
*519 FILLER_11_224
*520 FILLER_11_23
*521 FILLER_11_231
*522 FILLER_11_238
*523 FILLER_11_243
*524 FILLER_11_250
*525 FILLER_11_257
*526 FILLER_11_264
*527 FILLER_11_269
*528 FILLER_11_276
*529 FILLER_11_283
*530 FILLER_11_290
*531 FILLER_11_295
*532 FILLER_11_30
*533 FILLER_11_302
*534 FILLER_11_309
*535 FILLER_11_316
*536 FILLER_11_321
*537 FILLER_11_328
*538 FILLER_11_335
*539 FILLER_11_342
*540 FILLER_11_347
*541 FILLER_11_35
*542 FILLER_11_354
*543 FILLER_11_361
*544 FILLER_11_368
*545 FILLER_11_373
*546 FILLER_11_380
*547 FILLER_11_387
*548 FILLER_11_394
*549 FILLER_11_399
*550 FILLER_11_4
*551 FILLER_11_406
*552 FILLER_11_413
*553 FILLER_11_42
*554 FILLER_11_420
*555 FILLER_11_425
*556 FILLER_11_432
*557 FILLER_11_439
*558 FILLER_11_446
*559 FILLER_11_451
*560 FILLER_11_458
*561 FILLER_11_465
*562 FILLER_11_472
*563 FILLER_11_477
*564 FILLER_11_484
*565 FILLER_11_49
*566 FILLER_11_491
*567 FILLER_11_498
*568 FILLER_11_503
*569 FILLER_11_56
*570 FILLER_11_61
*571 FILLER_11_68
*572 FILLER_11_75
*573 FILLER_11_82
*574 FILLER_11_87
*575 FILLER_11_9
*576 FILLER_11_94
*577 FILLER_1_0
*578 FILLER_1_102
*579 FILLER_1_109
*580 FILLER_1_114
*581 FILLER_1_121
*582 FILLER_1_123
*583 FILLER_1_128
*584 FILLER_1_132
*585 FILLER_1_138
*586 FILLER_1_14
*587 FILLER_1_144
*588 FILLER_1_151
*589 FILLER_1_158
*590 FILLER_1_165
*591 FILLER_1_172
*592 FILLER_1_176
*593 FILLER_1_185
*594 FILLER_1_192
*595 FILLER_1_199
*596 FILLER_1_209
*597 FILLER_1_21
*598 FILLER_1_216
*599 FILLER_1_223
*600 FILLER_1_231
*601 FILLER_1_236
*602 FILLER_1_242
*603 FILLER_1_251
*604 FILLER_1_253
*605 FILLER_1_258
*606 FILLER_1_265
*607 FILLER_1_273
*608 FILLER_1_28
*609 FILLER_1_280
*610 FILLER_1_282
*611 FILLER_1_291
*612 FILLER_1_298
*613 FILLER_1_305
*614 FILLER_1_312
*615 FILLER_1_319
*616 FILLER_1_326
*617 FILLER_1_333
*618 FILLER_1_339
*619 FILLER_1_343
*620 FILLER_1_35
*621 FILLER_1_352
*622 FILLER_1_359
*623 FILLER_1_366
*624 FILLER_1_373
*625 FILLER_1_380
*626 FILLER_1_387
*627 FILLER_1_394
*628 FILLER_1_396
*629 FILLER_1_401
*630 FILLER_1_406
*631 FILLER_1_413
*632 FILLER_1_42
*633 FILLER_1_420
*634 FILLER_1_427
*635 FILLER_1_434
*636 FILLER_1_441
*637 FILLER_1_448
*638 FILLER_1_455
*639 FILLER_1_462
*640 FILLER_1_469
*641 FILLER_1_476
*642 FILLER_1_483
*643 FILLER_1_49
*644 FILLER_1_490
*645 FILLER_1_497
*646 FILLER_1_56
*647 FILLER_1_67
*648 FILLER_1_7
*649 FILLER_1_74
*650 FILLER_1_81
*651 FILLER_1_88
*652 FILLER_1_9
*653 FILLER_1_95
*654 FILLER_2_0
*655 FILLER_2_105
*656 FILLER_2_112
*657 FILLER_2_119
*658 FILLER_2_126
*659 FILLER_2_133
*660 FILLER_2_139
*661 FILLER_2_14
*662 FILLER_2_144
*663 FILLER_2_151
*664 FILLER_2_158
*665 FILLER_2_165
*666 FILLER_2_170
*667 FILLER_2_177
*668 FILLER_2_184
*669 FILLER_2_195
*670 FILLER_2_202
*671 FILLER_2_21
*672 FILLER_2_217
*673 FILLER_2_221
*674 FILLER_2_226
*675 FILLER_2_233
*676 FILLER_2_240
*677 FILLER_2_247
*678 FILLER_2_254
*679 FILLER_2_261
*680 FILLER_2_268
*681 FILLER_2_275
*682 FILLER_2_279
*683 FILLER_2_28
*684 FILLER_2_285
*685 FILLER_2_292
*686 FILLER_2_300
*687 FILLER_2_316
*688 FILLER_2_321
*689 FILLER_2_329
*690 FILLER_2_334
*691 FILLER_2_338
*692 FILLER_2_343
*693 FILLER_2_35
*694 FILLER_2_350
*695 FILLER_2_356
*696 FILLER_2_362
*697 FILLER_2_367
*698 FILLER_2_369
*699 FILLER_2_374
*700 FILLER_2_382
*701 FILLER_2_389
*702 FILLER_2_396
*703 FILLER_2_403
*704 FILLER_2_410
*705 FILLER_2_417
*706 FILLER_2_42
*707 FILLER_2_421
*708 FILLER_2_456
*709 FILLER_2_463
*710 FILLER_2_470
*711 FILLER_2_477
*712 FILLER_2_484
*713 FILLER_2_49
*714 FILLER_2_491
*715 FILLER_2_498
*716 FILLER_2_505
*717 FILLER_2_519
*718 FILLER_2_56
*719 FILLER_2_63
*720 FILLER_2_7
*721 FILLER_2_70
*722 FILLER_2_77
*723 FILLER_2_84
*724 FILLER_2_91
*725 FILLER_2_98
*726 FILLER_3_0
*727 FILLER_3_105
*728 FILLER_3_112
*729 FILLER_3_119
*730 FILLER_3_126
*731 FILLER_3_131
*732 FILLER_3_138
*733 FILLER_3_14
*734 FILLER_3_145
*735 FILLER_3_152
*736 FILLER_3_156
*737 FILLER_3_162
*738 FILLER_3_167
*739 FILLER_3_174
*740 FILLER_3_181
*741 FILLER_3_185
*742 FILLER_3_191
*743 FILLER_3_198
*744 FILLER_3_205
*745 FILLER_3_21
*746 FILLER_3_212
*747 FILLER_3_219
*748 FILLER_3_226
*749 FILLER_3_231
*750 FILLER_3_238
*751 FILLER_3_245
*752 FILLER_3_252
*753 FILLER_3_259
*754 FILLER_3_266
*755 FILLER_3_273
*756 FILLER_3_277
*757 FILLER_3_28
*758 FILLER_3_283
*759 FILLER_3_290
*760 FILLER_3_297
*761 FILLER_3_304
*762 FILLER_3_311
*763 FILLER_3_318
*764 FILLER_3_325
*765 FILLER_3_332
*766 FILLER_3_339
*767 FILLER_3_346
*768 FILLER_3_35
*769 FILLER_3_353
*770 FILLER_3_360
*771 FILLER_3_367
*772 FILLER_3_374
*773 FILLER_3_381
*774 FILLER_3_388
*775 FILLER_3_394
*776 FILLER_3_401
*777 FILLER_3_408
*778 FILLER_3_415
*779 FILLER_3_42
*780 FILLER_3_422
*781 FILLER_3_429
*782 FILLER_3_436
*783 FILLER_3_443
*784 FILLER_3_450
*785 FILLER_3_457
*786 FILLER_3_464
*787 FILLER_3_471
*788 FILLER_3_478
*789 FILLER_3_485
*790 FILLER_3_49
*791 FILLER_3_492
*792 FILLER_3_499
*793 FILLER_3_506
*794 FILLER_3_513
*795 FILLER_3_515
*796 FILLER_3_56
*797 FILLER_3_63
*798 FILLER_3_7
*799 FILLER_3_70
*800 FILLER_3_77
*801 FILLER_3_84
*802 FILLER_3_91
*803 FILLER_3_98
*804 FILLER_4_0
*805 FILLER_4_105
*806 FILLER_4_112
*807 FILLER_4_119
*808 FILLER_4_126
*809 FILLER_4_133
*810 FILLER_4_14
*811 FILLER_4_144
*812 FILLER_4_150
*813 FILLER_4_157
*814 FILLER_4_164
*815 FILLER_4_171
*816 FILLER_4_178
*817 FILLER_4_185
*818 FILLER_4_192
*819 FILLER_4_199
*820 FILLER_4_206
*821 FILLER_4_21
*822 FILLER_4_213
*823 FILLER_4_220
*824 FILLER_4_227
*825 FILLER_4_234
*826 FILLER_4_238
*827 FILLER_4_243
*828 FILLER_4_245
*829 FILLER_4_254
*830 FILLER_4_261
*831 FILLER_4_268
*832 FILLER_4_275
*833 FILLER_4_28
*834 FILLER_4_282
*835 FILLER_4_289
*836 FILLER_4_296
*837 FILLER_4_304
*838 FILLER_4_311
*839 FILLER_4_318
*840 FILLER_4_325
*841 FILLER_4_332
*842 FILLER_4_339
*843 FILLER_4_346
*844 FILLER_4_35
*845 FILLER_4_353
*846 FILLER_4_360
*847 FILLER_4_367
*848 FILLER_4_374
*849 FILLER_4_381
*850 FILLER_4_388
*851 FILLER_4_395
*852 FILLER_4_402
*853 FILLER_4_409
*854 FILLER_4_416
*855 FILLER_4_42
*856 FILLER_4_423
*857 FILLER_4_430
*858 FILLER_4_437
*859 FILLER_4_444
*860 FILLER_4_451
*861 FILLER_4_458
*862 FILLER_4_465
*863 FILLER_4_472
*864 FILLER_4_479
*865 FILLER_4_486
*866 FILLER_4_49
*867 FILLER_4_493
*868 FILLER_4_500
*869 FILLER_4_507
*870 FILLER_4_514
*871 FILLER_4_521
*872 FILLER_4_56
*873 FILLER_4_63
*874 FILLER_4_7
*875 FILLER_4_70
*876 FILLER_4_77
*877 FILLER_4_84
*878 FILLER_4_91
*879 FILLER_4_98
*880 FILLER_5_0
*881 FILLER_5_105
*882 FILLER_5_112
*883 FILLER_5_119
*884 FILLER_5_126
*885 FILLER_5_133
*886 FILLER_5_14
*887 FILLER_5_140
*888 FILLER_5_147
*889 FILLER_5_154
*890 FILLER_5_161
*891 FILLER_5_168
*892 FILLER_5_175
*893 FILLER_5_182
*894 FILLER_5_189
*895 FILLER_5_196
*896 FILLER_5_203
*897 FILLER_5_21
*898 FILLER_5_210
*899 FILLER_5_217
*900 FILLER_5_224
*901 FILLER_5_231
*902 FILLER_5_235
*903 FILLER_5_240
*904 FILLER_5_247
*905 FILLER_5_254
*906 FILLER_5_261
*907 FILLER_5_268
*908 FILLER_5_275
*909 FILLER_5_28
*910 FILLER_5_281
*911 FILLER_5_288
*912 FILLER_5_295
*913 FILLER_5_302
*914 FILLER_5_309
*915 FILLER_5_316
*916 FILLER_5_323
*917 FILLER_5_330
*918 FILLER_5_337
*919 FILLER_5_344
*920 FILLER_5_35
*921 FILLER_5_351
*922 FILLER_5_358
*923 FILLER_5_366
*924 FILLER_5_373
*925 FILLER_5_380
*926 FILLER_5_387
*927 FILLER_5_394
*928 FILLER_5_401
*929 FILLER_5_408
*930 FILLER_5_415
*931 FILLER_5_42
*932 FILLER_5_422
*933 FILLER_5_429
*934 FILLER_5_436
*935 FILLER_5_443
*936 FILLER_5_450
*937 FILLER_5_457
*938 FILLER_5_464
*939 FILLER_5_471
*940 FILLER_5_478
*941 FILLER_5_485
*942 FILLER_5_49
*943 FILLER_5_492
*944 FILLER_5_499
*945 FILLER_5_506
*946 FILLER_5_513
*947 FILLER_5_520
*948 FILLER_5_522
*949 FILLER_5_56
*950 FILLER_5_63
*951 FILLER_5_7
*952 FILLER_5_70
*953 FILLER_5_77
*954 FILLER_5_84
*955 FILLER_5_91
*956 FILLER_5_98
*957 FILLER_6_0
*958 FILLER_6_105
*959 FILLER_6_112
*960 FILLER_6_119
*961 FILLER_6_126
*962 FILLER_6_133
*963 FILLER_6_14
*964 FILLER_6_140
*965 FILLER_6_147
*966 FILLER_6_154
*967 FILLER_6_161
*968 FILLER_6_168
*969 FILLER_6_175
*970 FILLER_6_182
*971 FILLER_6_189
*972 FILLER_6_196
*973 FILLER_6_203
*974 FILLER_6_21
*975 FILLER_6_210
*976 FILLER_6_217
*977 FILLER_6_228
*978 FILLER_6_235
*979 FILLER_6_242
*980 FILLER_6_249
*981 FILLER_6_251
*982 FILLER_6_260
*983 FILLER_6_267
*984 FILLER_6_274
*985 FILLER_6_28
*986 FILLER_6_281
*987 FILLER_6_288
*988 FILLER_6_295
*989 FILLER_6_302
*990 FILLER_6_309
*991 FILLER_6_316
*992 FILLER_6_323
*993 FILLER_6_330
*994 FILLER_6_337
*995 FILLER_6_344
*996 FILLER_6_35
*997 FILLER_6_351
*998 FILLER_6_355
*999 FILLER_6_385
*1000 FILLER_6_390
*1001 FILLER_6_397
*1002 FILLER_6_404
*1003 FILLER_6_411
*1004 FILLER_6_418
*1005 FILLER_6_42
*1006 FILLER_6_425
*1007 FILLER_6_432
*1008 FILLER_6_439
*1009 FILLER_6_446
*1010 FILLER_6_453
*1011 FILLER_6_460
*1012 FILLER_6_467
*1013 FILLER_6_474
*1014 FILLER_6_481
*1015 FILLER_6_488
*1016 FILLER_6_49
*1017 FILLER_6_495
*1018 FILLER_6_502
*1019 FILLER_6_509
*1020 FILLER_6_516
*1021 FILLER_6_56
*1022 FILLER_6_63
*1023 FILLER_6_7
*1024 FILLER_6_70
*1025 FILLER_6_77
*1026 FILLER_6_84
*1027 FILLER_6_91
*1028 FILLER_6_98
*1029 FILLER_7_0
*1030 FILLER_7_105
*1031 FILLER_7_112
*1032 FILLER_7_119
*1033 FILLER_7_126
*1034 FILLER_7_133
*1035 FILLER_7_14
*1036 FILLER_7_140
*1037 FILLER_7_147
*1038 FILLER_7_154
*1039 FILLER_7_161
*1040 FILLER_7_168
*1041 FILLER_7_175
*1042 FILLER_7_182
*1043 FILLER_7_188
*1044 FILLER_7_195
*1045 FILLER_7_202
*1046 FILLER_7_209
*1047 FILLER_7_21
*1048 FILLER_7_216
*1049 FILLER_7_223
*1050 FILLER_7_230
*1051 FILLER_7_232
*1052 FILLER_7_237
*1053 FILLER_7_244
*1054 FILLER_7_251
*1055 FILLER_7_258
*1056 FILLER_7_265
*1057 FILLER_7_272
*1058 FILLER_7_279
*1059 FILLER_7_28
*1060 FILLER_7_286
*1061 FILLER_7_293
*1062 FILLER_7_301
*1063 FILLER_7_306
*1064 FILLER_7_313
*1065 FILLER_7_320
*1066 FILLER_7_327
*1067 FILLER_7_334
*1068 FILLER_7_341
*1069 FILLER_7_348
*1070 FILLER_7_35
*1071 FILLER_7_352
*1072 FILLER_7_360
*1073 FILLER_7_367
*1074 FILLER_7_374
*1075 FILLER_7_381
*1076 FILLER_7_388
*1077 FILLER_7_395
*1078 FILLER_7_402
*1079 FILLER_7_409
*1080 FILLER_7_416
*1081 FILLER_7_42
*1082 FILLER_7_423
*1083 FILLER_7_430
*1084 FILLER_7_437
*1085 FILLER_7_444
*1086 FILLER_7_451
*1087 FILLER_7_458
*1088 FILLER_7_465
*1089 FILLER_7_472
*1090 FILLER_7_479
*1091 FILLER_7_486
*1092 FILLER_7_49
*1093 FILLER_7_493
*1094 FILLER_7_500
*1095 FILLER_7_507
*1096 FILLER_7_514
*1097 FILLER_7_521
*1098 FILLER_7_56
*1099 FILLER_7_63
*1100 FILLER_7_7
*1101 FILLER_7_70
*1102 FILLER_7_77
*1103 FILLER_7_84
*1104 FILLER_7_91
*1105 FILLER_7_98
*1106 FILLER_8_0
*1107 FILLER_8_105
*1108 FILLER_8_112
*1109 FILLER_8_119
*1110 FILLER_8_126
*1111 FILLER_8_133
*1112 FILLER_8_14
*1113 FILLER_8_140
*1114 FILLER_8_147
*1115 FILLER_8_154
*1116 FILLER_8_161
*1117 FILLER_8_168
*1118 FILLER_8_175
*1119 FILLER_8_182
*1120 FILLER_8_189
*1121 FILLER_8_196
*1122 FILLER_8_203
*1123 FILLER_8_21
*1124 FILLER_8_210
*1125 FILLER_8_217
*1126 FILLER_8_224
*1127 FILLER_8_228
*1128 FILLER_8_234
*1129 FILLER_8_241
*1130 FILLER_8_248
*1131 FILLER_8_255
*1132 FILLER_8_262
*1133 FILLER_8_269
*1134 FILLER_8_276
*1135 FILLER_8_278
*1136 FILLER_8_28
*1137 FILLER_8_283
*1138 FILLER_8_290
*1139 FILLER_8_297
*1140 FILLER_8_304
*1141 FILLER_8_311
*1142 FILLER_8_319
*1143 FILLER_8_326
*1144 FILLER_8_333
*1145 FILLER_8_335
*1146 FILLER_8_339
*1147 FILLER_8_346
*1148 FILLER_8_35
*1149 FILLER_8_353
*1150 FILLER_8_358
*1151 FILLER_8_365
*1152 FILLER_8_372
*1153 FILLER_8_379
*1154 FILLER_8_386
*1155 FILLER_8_393
*1156 FILLER_8_400
*1157 FILLER_8_407
*1158 FILLER_8_414
*1159 FILLER_8_42
*1160 FILLER_8_421
*1161 FILLER_8_428
*1162 FILLER_8_435
*1163 FILLER_8_442
*1164 FILLER_8_449
*1165 FILLER_8_456
*1166 FILLER_8_463
*1167 FILLER_8_470
*1168 FILLER_8_477
*1169 FILLER_8_484
*1170 FILLER_8_49
*1171 FILLER_8_491
*1172 FILLER_8_498
*1173 FILLER_8_505
*1174 FILLER_8_512
*1175 FILLER_8_519
*1176 FILLER_8_56
*1177 FILLER_8_63
*1178 FILLER_8_7
*1179 FILLER_8_70
*1180 FILLER_8_77
*1181 FILLER_8_84
*1182 FILLER_8_91
*1183 FILLER_8_98
*1184 FILLER_9_0
*1185 FILLER_9_105
*1186 FILLER_9_112
*1187 FILLER_9_119
*1188 FILLER_9_126
*1189 FILLER_9_133
*1190 FILLER_9_14
*1191 FILLER_9_140
*1192 FILLER_9_147
*1193 FILLER_9_154
*1194 FILLER_9_161
*1195 FILLER_9_168
*1196 FILLER_9_175
*1197 FILLER_9_182
*1198 FILLER_9_189
*1199 FILLER_9_196
*1200 FILLER_9_203
*1201 FILLER_9_21
*1202 FILLER_9_210
*1203 FILLER_9_217
*1204 FILLER_9_224
*1205 FILLER_9_231
*1206 FILLER_9_238
*1207 FILLER_9_245
*1208 FILLER_9_252
*1209 FILLER_9_258
*1210 FILLER_9_265
*1211 FILLER_9_272
*1212 FILLER_9_28
*1213 FILLER_9_284
*1214 FILLER_9_291
*1215 FILLER_9_298
*1216 FILLER_9_305
*1217 FILLER_9_312
*1218 FILLER_9_319
*1219 FILLER_9_326
*1220 FILLER_9_35
*1221 FILLER_9_364
*1222 FILLER_9_371
*1223 FILLER_9_378
*1224 FILLER_9_385
*1225 FILLER_9_392
*1226 FILLER_9_399
*1227 FILLER_9_406
*1228 FILLER_9_413
*1229 FILLER_9_42
*1230 FILLER_9_420
*1231 FILLER_9_427
*1232 FILLER_9_434
*1233 FILLER_9_441
*1234 FILLER_9_448
*1235 FILLER_9_455
*1236 FILLER_9_462
*1237 FILLER_9_469
*1238 FILLER_9_476
*1239 FILLER_9_483
*1240 FILLER_9_49
*1241 FILLER_9_490
*1242 FILLER_9_497
*1243 FILLER_9_504
*1244 FILLER_9_511
*1245 FILLER_9_518
*1246 FILLER_9_522
*1247 FILLER_9_56
*1248 FILLER_9_63
*1249 FILLER_9_7
*1250 FILLER_9_70
*1251 FILLER_9_77
*1252 FILLER_9_84
*1253 FILLER_9_91
*1254 FILLER_9_98
*1255 _000_
*1256 _001_
*1257 _002_
*1258 _003_
*1259 _004_
*1260 _005_
*1261 _006_
*1262 _007_
*1263 _008_
*1264 _009_
*1265 _010_
*1266 _011_
*1267 _012_
*1268 _013_
*1269 _014_
*1270 _015_
*1271 _016_
*1272 _017_
*1273 _018_
*1274 _019_
*1275 _020_
*1276 _021_
*1277 _022_
*1278 _023_
*1279 _024_
*1280 _025_
*1281 _026_
*1282 _027_
*1283 _028_
*1284 _029_
*1285 _030_
*1286 _031_
*1287 _032_
*1288 _033_
*1289 _034_
*1290 _035_
*1291 _036_
*1292 _037_
*1293 _038_
*1294 _039_
*1295 _040_
*1296 _041_
*1297 _042_
*1298 _043_
*1299 _044_
*1300 _045_
*1301 _046_
*1302 _047_
*1303 _048_
*1304 _049_
*1305 _050_
*1306 _051_
*1307 _052_
*1308 _053_
*1309 _054_
*1310 _055_
*1311 _056_
*1312 _057_
*1313 _058_
*1314 _059_
*1315 _060_
*1316 _061_
*1317 _062_
*1318 _063_
*1319 _064_
*1320 _065_
*1321 _066_
*1322 _067_
*1323 _068_
*1324 _069_
*1325 _070_
*1326 _071_
*1327 _072_
*1328 _073_
*1329 _074_
*1330 _075_
*1331 _076_
*1332 _077_
*1333 _078_
*1334 _079_
*1335 _080_
*1336 _081_
*1337 _082_
*1338 _083_
*1339 _084_
*1340 _085_
*1341 _086_
*1342 _087_
*1343 _088_
*1344 _089_
*1345 _090_
*1346 _091_
*1347 _092_
*1348 _093_
*1349 _094_
*1350 _095_
*1351 _096_
*1352 _097_
*1353 _098_
*1354 _099_
*1355 _100_
*1356 _101_
*1357 _102_
*1358 _103_
*1359 _104_
*1360 output1
*1361 output10
*1362 output100
*1363 output101
*1364 output102
*1365 output103
*1366 output104
*1367 output105
*1368 output11
*1369 output12
*1370 output13
*1371 output14
*1372 output15
*1373 output16
*1374 output17
*1375 output18
*1376 output19
*1377 output2
*1378 output20
*1379 output21
*1380 output22
*1381 output23
*1382 output24
*1383 output25
*1384 output26
*1385 output27
*1386 output28
*1387 output29
*1388 output3
*1389 output30
*1390 output31
*1391 output32
*1392 output33
*1393 output34
*1394 output35
*1395 output36
*1396 output37
*1397 output38
*1398 output39
*1399 output4
*1400 output40
*1401 output41
*1402 output42
*1403 output43
*1404 output44
*1405 output45
*1406 output46
*1407 output47
*1408 output48
*1409 output49
*1410 output5
*1411 output50
*1412 output51
*1413 output52
*1414 output53
*1415 output54
*1416 output55
*1417 output56
*1418 output57
*1419 output58
*1420 output59
*1421 output6
*1422 output60
*1423 output61
*1424 output62
*1425 output63
*1426 output64
*1427 output65
*1428 output66
*1429 output67
*1430 output68
*1431 output69
*1432 output7
*1433 output70
*1434 output71
*1435 output72
*1436 output73
*1437 output74
*1438 output75
*1439 output76
*1440 output77
*1441 output78
*1442 output79
*1443 output8
*1444 output80
*1445 output81
*1446 output82
*1447 output83
*1448 output84
*1449 output85
*1450 output86
*1451 output87
*1452 output88
*1453 output89
*1454 output9
*1455 output90
*1456 output91
*1457 output92
*1458 output93
*1459 output94
*1460 output95
*1461 output96
*1462 output97
*1463 output98
*1464 output99

*PORTS
FrameData[0] I
FrameData[10] I
FrameData[11] I
FrameData[12] I
FrameData[13] I
FrameData[14] I
FrameData[15] I
FrameData[16] I
FrameData[17] I
FrameData[18] I
FrameData[19] I
FrameData[1] I
FrameData[20] I
FrameData[21] I
FrameData[22] I
FrameData[23] I
FrameData[24] I
FrameData[25] I
FrameData[26] I
FrameData[27] I
FrameData[28] I
FrameData[29] I
FrameData[2] I
FrameData[30] I
FrameData[31] I
FrameData[3] I
FrameData[4] I
FrameData[5] I
FrameData[6] I
FrameData[7] I
FrameData[8] I
FrameData[9] I
FrameData_O[0] O
FrameData_O[10] O
FrameData_O[11] O
FrameData_O[12] O
FrameData_O[13] O
FrameData_O[14] O
FrameData_O[15] O
FrameData_O[16] O
FrameData_O[17] O
FrameData_O[18] O
FrameData_O[19] O
FrameData_O[1] O
FrameData_O[20] O
FrameData_O[21] O
FrameData_O[22] O
FrameData_O[23] O
FrameData_O[24] O
FrameData_O[25] O
FrameData_O[26] O
FrameData_O[27] O
FrameData_O[28] O
FrameData_O[29] O
FrameData_O[2] O
FrameData_O[30] O
FrameData_O[31] O
FrameData_O[3] O
FrameData_O[4] O
FrameData_O[5] O
FrameData_O[6] O
FrameData_O[7] O
FrameData_O[8] O
FrameData_O[9] O
FrameStrobe[0] I
FrameStrobe[10] I
FrameStrobe[11] I
FrameStrobe[12] I
FrameStrobe[13] I
FrameStrobe[14] I
FrameStrobe[15] I
FrameStrobe[16] I
FrameStrobe[17] I
FrameStrobe[18] I
FrameStrobe[19] I
FrameStrobe[1] I
FrameStrobe[2] I
FrameStrobe[3] I
FrameStrobe[4] I
FrameStrobe[5] I
FrameStrobe[6] I
FrameStrobe[7] I
FrameStrobe[8] I
FrameStrobe[9] I
FrameStrobe_O[0] O
FrameStrobe_O[10] O
FrameStrobe_O[11] O
FrameStrobe_O[12] O
FrameStrobe_O[13] O
FrameStrobe_O[14] O
FrameStrobe_O[15] O
FrameStrobe_O[16] O
FrameStrobe_O[17] O
FrameStrobe_O[18] O
FrameStrobe_O[19] O
FrameStrobe_O[1] O
FrameStrobe_O[2] O
FrameStrobe_O[3] O
FrameStrobe_O[4] O
FrameStrobe_O[5] O
FrameStrobe_O[6] O
FrameStrobe_O[7] O
FrameStrobe_O[8] O
FrameStrobe_O[9] O
N1END[0] I
N1END[1] I
N1END[2] I
N1END[3] I
N2END[0] I
N2END[1] I
N2END[2] I
N2END[3] I
N2END[4] I
N2END[5] I
N2END[6] I
N2END[7] I
N2MID[0] I
N2MID[1] I
N2MID[2] I
N2MID[3] I
N2MID[4] I
N2MID[5] I
N2MID[6] I
N2MID[7] I
N4END[0] I
N4END[10] I
N4END[11] I
N4END[12] I
N4END[13] I
N4END[14] I
N4END[15] I
N4END[1] I
N4END[2] I
N4END[3] I
N4END[4] I
N4END[5] I
N4END[6] I
N4END[7] I
N4END[8] I
N4END[9] I
NN4END[0] I
NN4END[10] I
NN4END[11] I
NN4END[12] I
NN4END[13] I
NN4END[14] I
NN4END[15] I
NN4END[1] I
NN4END[2] I
NN4END[3] I
NN4END[4] I
NN4END[5] I
NN4END[6] I
NN4END[7] I
NN4END[8] I
NN4END[9] I
S1BEG[0] O
S1BEG[1] O
S1BEG[2] O
S1BEG[3] O
S2BEG[0] O
S2BEG[1] O
S2BEG[2] O
S2BEG[3] O
S2BEG[4] O
S2BEG[5] O
S2BEG[6] O
S2BEG[7] O
S2BEGb[0] O
S2BEGb[1] O
S2BEGb[2] O
S2BEGb[3] O
S2BEGb[4] O
S2BEGb[5] O
S2BEGb[6] O
S2BEGb[7] O
S4BEG[0] O
S4BEG[10] O
S4BEG[11] O
S4BEG[12] O
S4BEG[13] O
S4BEG[14] O
S4BEG[15] O
S4BEG[1] O
S4BEG[2] O
S4BEG[3] O
S4BEG[4] O
S4BEG[5] O
S4BEG[6] O
S4BEG[7] O
S4BEG[8] O
S4BEG[9] O
SS4BEG[0] O
SS4BEG[10] O
SS4BEG[11] O
SS4BEG[12] O
SS4BEG[13] O
SS4BEG[14] O
SS4BEG[15] O
SS4BEG[1] O
SS4BEG[2] O
SS4BEG[3] O
SS4BEG[4] O
SS4BEG[5] O
SS4BEG[6] O
SS4BEG[7] O
SS4BEG[8] O
SS4BEG[9] O
UserCLK I
UserCLKo O

*D_NET *1 0.00197371
*CONN
*P FrameData[0] I
*I *1255:A I *D sg13g2_buf_1
*CAP
1 FrameData[0] 0.000587877
2 *1255:A 0.000398979
3 *1:11 0.000986857
4 *1255:A *1259:A 0
5 *1255:A *28:9 0
6 *1255:A *29:9 0
7 *1255:A *30:5 0
8 *1:11 *12:9 0
*RES
1 FrameData[0] *1:11 46.7748 
2 *1:11 *1255:A 23.811 
*END

*D_NET *2 0.0278794
*CONN
*P FrameData[10] I
*I *318:A I *D sg13g2_antennanp
*I *373:A I *D sg13g2_antennanp
*I *1265:A I *D sg13g2_buf_1
*CAP
1 FrameData[10] 0.000853204
2 *318:A 5.18725e-05
3 *373:A 0
4 *1265:A 0
5 *2:32 0.000149517
6 *2:25 0.000210419
7 *2:17 0.00352466
8 *2:13 0.00874577
9 *2:11 0.00638238
10 *318:A *214:30 0.000158157
11 *2:11 *3:9 0.00108653
12 *2:11 *31:11 0
13 *2:11 *32:9 0
14 *2:13 *4:13 0
15 *2:13 *6:13 0.00454425
16 *2:13 *11:11 0.000446922
17 *2:13 *13:5 0
18 *2:13 *14:13 0.000819886
19 *2:17 *351:A 0
20 *2:17 *1266:A 0
21 *2:17 *4:13 0
22 *2:17 *14:13 0
23 *2:17 *214:24 0.000394723
24 *2:17 *223:24 0
25 *2:25 *223:24 0.000127509
26 *2:25 *224:18 7.51688e-05
27 *2:25 *241:6 0.000233724
28 *2:32 *214:24 0
29 *2:32 *214:30 7.46854e-05
30 *2:32 *223:24 0
*RES
1 FrameData[10] *2:11 49.2777 
2 *2:11 *2:13 58.195 
3 *2:13 *2:17 30.8279 
4 *2:17 *2:25 42.9252 
5 *2:25 *1265:A 20 
6 *2:17 *2:32 1.0918 
7 *2:32 *373:A 20 
8 *2:32 *318:A 20.8446 
*END

*D_NET *3 0.0338738
*CONN
*P FrameData[11] I
*I *1266:A I *D sg13g2_buf_1
*CAP
1 FrameData[11] 0.000840915
2 *1266:A 0.00135014
3 *3:19 0.00491715
4 *3:15 0.00519299
5 *3:9 0.00246689
6 *1266:A *1279:A 0.00268153
7 *1266:A *17:13 0
8 *1266:A *223:24 0.00321446
9 *1266:A *224:18 4.79124e-05
10 *3:9 *4:11 0
11 *3:9 *31:11 0.000762041
12 *3:9 *32:9 0
13 *3:15 *14:5 0
14 *3:15 *15:11 0
15 *3:15 *17:13 0.00331594
16 *3:19 *1279:A 0
17 *3:19 *13:5 0
18 *3:19 *14:5 0.00799733
19 *3:19 *17:13 0
20 *2:11 *3:9 0.00108653
21 *2:17 *1266:A 0
*RES
1 FrameData[11] *3:9 30.112 
2 *3:9 *3:15 37.9735 
3 *3:15 *3:19 41.2103 
4 *3:19 *1266:A 42.3922 
*END

*D_NET *4 0.0244899
*CONN
*P FrameData[12] I
*I *1267:A I *D sg13g2_buf_1
*CAP
1 FrameData[12] 0.000798842
2 *1267:A 2.47864e-05
3 *4:13 0.00633994
4 *4:11 0.00711399