*SPEF "ieee 1481-1999"
*DESIGN "N_term_single2"
*DATE "08:50:24 Monday February 24, 2025"
*VENDOR "The OpenROAD Project"
*PROGRAM "OpenROAD"
*VERSION "87af90f72f3f9be1fdfa1d886f0dd8d8b8f34694"
*DESIGN_FLOW "NAME_SCOPE LOCAL" "PIN_CAP NONE"
*DIVIDER /
*DELIMITER :
*BUS_DELIMITER []
*T_UNIT 1 NS
*C_UNIT 1 PF
*R_UNIT 1 OHM
*L_UNIT 1 HENRY

*NAME_MAP
*1 FrameData[0]
*2 FrameData[10]
*3 FrameData[11]
*4 FrameData[12]
*5 FrameData[13]
*6 FrameData[14]
*7 FrameData[15]
*8 FrameData[16]
*9 FrameData[17]
*10 FrameData[18]
*11 FrameData[19]
*12 FrameData[1]
*13 FrameData[20]
*14 FrameData[21]
*15 FrameData[22]
*16 FrameData[23]
*17 FrameData[24]
*18 FrameData[25]
*19 FrameData[26]
*20 FrameData[27]
*21 FrameData[28]
*22 FrameData[29]
*23 FrameData[2]
*24 FrameData[30]
*25 FrameData[31]
*26 FrameData[3]
*27 FrameData[4]
*28 FrameData[5]
*29 FrameData[6]
*30 FrameData[7]
*31 FrameData[8]
*32 FrameData[9]
*33 FrameData_O[0]
*34 FrameData_O[10]
*35 FrameData_O[11]
*36 FrameData_O[12]
*37 FrameData_O[13]
*38 FrameData_O[14]
*39 FrameData_O[15]
*40 FrameData_O[16]
*41 FrameData_O[17]
*42 FrameData_O[18]
*43 FrameData_O[19]
*44 FrameData_O[1]
*45 FrameData_O[20]
*46 FrameData_O[21]
*47 FrameData_O[22]
*48 FrameData_O[23]
*49 FrameData_O[24]
*50 FrameData_O[25]
*51 FrameData_O[26]
*52 FrameData_O[27]
*53 FrameData_O[28]
*54 FrameData_O[29]
*55 FrameData_O[2]
*56 FrameData_O[30]
*57 FrameData_O[31]
*58 FrameData_O[3]
*59 FrameData_O[4]
*60 FrameData_O[5]
*61 FrameData_O[6]
*62 FrameData_O[7]
*63 FrameData_O[8]
*64 FrameData_O[9]
*65 FrameStrobe[0]
*66 FrameStrobe[10]
*67 FrameStrobe[11]
*68 FrameStrobe[12]
*69 FrameStrobe[13]
*70 FrameStrobe[14]
*71 FrameStrobe[15]
*72 FrameStrobe[16]
*73 FrameStrobe[17]
*74 FrameStrobe[18]
*75 FrameStrobe[19]
*76 FrameStrobe[1]
*77 FrameStrobe[2]
*78 FrameStrobe[3]
*79 FrameStrobe[4]
*80 FrameStrobe[5]
*81 FrameStrobe[6]
*82 FrameStrobe[7]
*83 FrameStrobe[8]
*84 FrameStrobe[9]
*85 FrameStrobe_O[0]
*86 FrameStrobe_O[10]
*87 FrameStrobe_O[11]
*88 FrameStrobe_O[12]
*89 FrameStrobe_O[13]
*90 FrameStrobe_O[14]
*91 FrameStrobe_O[15]
*92 FrameStrobe_O[16]
*93 FrameStrobe_O[17]
*94 FrameStrobe_O[18]
*95 FrameStrobe_O[19]
*96 FrameStrobe_O[1]
*97 FrameStrobe_O[2]
*98 FrameStrobe_O[3]
*99 FrameStrobe_O[4]
*100 FrameStrobe_O[5]
*101 FrameStrobe_O[6]
*102 FrameStrobe_O[7]
*103 FrameStrobe_O[8]
*104 FrameStrobe_O[9]
*105 N1END[0]
*106 N1END[1]
*107 N1END[2]
*108 N1END[3]
*109 N2END[0]
*110 N2END[1]
*111 N2END[2]
*112 N2END[3]
*113 N2END[4]
*114 N2END[5]
*115 N2END[6]
*116 N2END[7]
*117 N2MID[0]
*118 N2MID[1]
*119 N2MID[2]
*120 N2MID[3]
*121 N2MID[4]
*122 N2MID[5]
*123 N2MID[6]
*124 N2MID[7]
*125 N4END[0]
*126 N4END[10]
*127 N4END[11]
*128 N4END[12]
*129 N4END[13]
*130 N4END[14]
*131 N4END[15]
*132 N4END[1]
*133 N4END[2]
*134 N4END[3]
*135 N4END[4]
*136 N4END[5]
*137 N4END[6]
*138 N4END[7]
*139 N4END[8]
*140 N4END[9]
*141 NN4END[0]
*142 NN4END[10]
*143 NN4END[11]
*144 NN4END[12]
*145 NN4END[13]
*146 NN4END[14]
*147 NN4END[15]
*148 NN4END[1]
*149 NN4END[2]
*150 NN4END[3]
*151 NN4END[4]
*152 NN4END[5]
*153 NN4END[6]
*154 NN4END[7]
*155 NN4END[8]
*156 NN4END[9]
*157 S1BEG[0]
*158 S1BEG[1]
*159 S1BEG[2]
*160 S1BEG[3]
*161 S2BEG[0]
*162 S2BEG[1]
*163 S2BEG[2]
*164 S2BEG[3]
*165 S2BEG[4]
*166 S2BEG[5]
*167 S2BEG[6]
*168 S2BEG[7]
*169 S2BEGb[0]
*170 S2BEGb[1]
*171 S2BEGb[2]
*172 S2BEGb[3]
*173 S2BEGb[4]
*174 S2BEGb[5]
*175 S2BEGb[6]
*176 S2BEGb[7]
*177 S4BEG[0]
*178 S4BEG[10]
*179 S4BEG[11]
*180 S4BEG[12]
*181 S4BEG[13]
*182 S4BEG[14]
*183 S4BEG[15]
*184 S4BEG[1]
*185 S4BEG[2]
*186 S4BEG[3]
*187 S4BEG[4]
*188 S4BEG[5]
*189 S4BEG[6]
*190 S4BEG[7]
*191 S4BEG[8]
*192 S4BEG[9]
*193 SS4BEG[0]
*194 SS4BEG[10]
*195 SS4BEG[11]
*196 SS4BEG[12]
*197 SS4BEG[13]
*198 SS4BEG[14]
*199 SS4BEG[15]
*200 SS4BEG[1]
*201 SS4BEG[2]
*202 SS4BEG[3]
*203 SS4BEG[4]
*204 SS4BEG[5]
*205 SS4BEG[6]
*206 SS4BEG[7]
*207 SS4BEG[8]
*208 SS4BEG[9]
*209 UserCLK
*210 UserCLKo
*213 net1
*214 net10
*215 net100
*216 net101
*217 net102
*218 net103
*219 net104
*220 net105
*221 net11
*222 net12
*223 net13
*224 net14
*225 net15
*226 net16
*227 net17
*228 net18
*229 net19
*230 net2
*231 net20
*232 net21
*233 net22
*234 net23
*235 net24
*236 net25
*237 net26
*238 net27
*239 net28
*240 net29
*241 net3
*242 net30
*243 net31
*244 net32
*245 net33
*246 net34
*247 net35
*248 net36
*249 net37
*250 net38
*251 net39
*252 net4
*253 net40
*254 net41
*255 net42
*256 net43
*257 net44
*258 net45
*259 net46
*260 net47
*261 net48
*262 net49
*263 net5
*264 net50
*265 net51
*266 net52
*267 net53
*268 net54
*269 net55
*270 net56
*271 net57
*272 net58
*273 net59
*274 net6
*275 net60
*276 net61
*277 net62
*278 net63
*279 net64
*280 net65
*281 net66
*282 net67
*283 net68
*284 net69
*285 net7
*286 net70
*287 net71
*288 net72
*289 net73
*290 net74
*291 net75
*292 net76
*293 net77
*294 net78
*295 net79
*296 net8
*297 net80
*298 net81
*299 net82
*300 net83
*301 net84
*302 net85
*303 net86
*304 net87
*305 net88
*306 net89
*307 net9
*308 net90
*309 net91
*310 net92
*311 net93
*312 net94
*313 net95
*314 net96
*315 net97
*316 net98
*317 net99
*318 ANTENNA_1
*319 ANTENNA_10
*320 ANTENNA_11
*321 ANTENNA_12
*322 ANTENNA_13
*323 ANTENNA_14
*324 ANTENNA_15
*325 ANTENNA_16
*326 ANTENNA_17
*327 ANTENNA_18
*328 ANTENNA_19
*329 ANTENNA_2
*330 ANTENNA_20
*331 ANTENNA_21
*332 ANTENNA_22
*333 ANTENNA_23
*334 ANTENNA_24
*335 ANTENNA_25
*336 ANTENNA_26
*337 ANTENNA_27
*338 ANTENNA_28
*339 ANTENNA_29
*340 ANTENNA_3
*341 ANTENNA_30
*342 ANTENNA_31
*343 ANTENNA_32
*344 ANTENNA_33
*345 ANTENNA_34
*346 ANTENNA_35
*347 ANTENNA_36
*348 ANTENNA_37
*349 ANTENNA_38
*350 ANTENNA_39
*351 ANTENNA_4
*352 ANTENNA_40
*353 ANTENNA_41
*354 ANTENNA_42
*355 ANTENNA_43
*356 ANTENNA_44
*357 ANTENNA_45
*358 ANTENNA_46
*359 ANTENNA_5
*360 ANTENNA_6
*361 ANTENNA_7
*362 ANTENNA_8
*363 ANTENNA_9
*364 FILLER_0_109
*365 FILLER_0_113
*366 FILLER_0_125
*367 FILLER_0_137
*368 FILLER_0_141
*369 FILLER_0_15
*370 FILLER_0_153
*371 FILLER_0_165
*372 FILLER_0_169
*373 FILLER_0_181
*374 FILLER_0_193
*375 FILLER_0_197
*376 FILLER_0_209
*377 FILLER_0_225
*378 FILLER_0_253
*379 FILLER_0_27
*380 FILLER_0_278
*381 FILLER_0_29
*382 FILLER_0_3
*383 FILLER_0_305
*384 FILLER_0_321
*385 FILLER_0_335
*386 FILLER_0_361
*387 FILLER_0_389
*388 FILLER_0_41
*389 FILLER_0_417
*390 FILLER_0_429
*391 FILLER_0_441
*392 FILLER_0_447
*393 FILLER_0_449
*394 FILLER_0_461
*395 FILLER_0_473
*396 FILLER_0_477
*397 FILLER_0_483
*398 FILLER_0_53
*399 FILLER_0_57
*400 FILLER_0_69
*401 FILLER_0_81
*402 FILLER_0_85
*403 FILLER_0_97
*404 FILLER_10_100
*405 FILLER_10_112
*406 FILLER_10_121
*407 FILLER_10_13
*408 FILLER_10_133
*409 FILLER_10_139
*410 FILLER_10_141
*411 FILLER_10_153
*412 FILLER_10_164
*413 FILLER_10_176
*414 FILLER_10_188
*415 FILLER_10_197
*416 FILLER_10_203
*417 FILLER_10_218
*418 FILLER_10_229
*419 FILLER_10_25
*420 FILLER_10_251
*421 FILLER_10_253
*422 FILLER_10_265
*423 FILLER_10_268
*424 FILLER_10_277
*425 FILLER_10_289
*426 FILLER_10_29
*427 FILLER_10_3
*428 FILLER_10_301
*429 FILLER_10_307
*430 FILLER_10_315
*431 FILLER_10_327
*432 FILLER_10_339
*433 FILLER_10_351
*434 FILLER_10_363
*435 FILLER_10_365
*436 FILLER_10_369
*437 FILLER_10_375
*438 FILLER_10_387
*439 FILLER_10_395
*440 FILLER_10_402
*441 FILLER_10_41
*442 FILLER_10_414
*443 FILLER_10_419
*444 FILLER_10_421
*445 FILLER_10_430
*446 FILLER_10_442
*447 FILLER_10_454
*448 FILLER_10_466
*449 FILLER_10_474
*450 FILLER_10_477
*451 FILLER_10_53
*452 FILLER_10_65
*453 FILLER_10_73
*454 FILLER_10_79
*455 FILLER_10_83
*456 FILLER_10_85
*457 FILLER_11_103
*458 FILLER_11_108
*459 FILLER_11_113
*460 FILLER_11_125
*461 FILLER_11_133
*462 FILLER_11_139
*463 FILLER_11_141
*464 FILLER_11_153
*465 FILLER_11_158
*466 FILLER_11_166
*467 FILLER_11_169
*468 FILLER_11_177
*469 FILLER_11_183
*470 FILLER_11_19
*471 FILLER_11_195
*472 FILLER_11_197
*473 FILLER_11_203
*474 FILLER_11_208
*475 FILLER_11_220
*476 FILLER_11_225
*477 FILLER_11_233
*478 FILLER_11_245
*479 FILLER_11_251
*480 FILLER_11_253
*481 FILLER_11_258
*482 FILLER_11_27
*483 FILLER_11_270
*484 FILLER_11_278
*485 FILLER_11_285
*486 FILLER_11_297
*487 FILLER_11_3
*488 FILLER_11_303
*489 FILLER_11_309
*490 FILLER_11_321
*491 FILLER_11_33
*492 FILLER_11_333
*493 FILLER_11_337
*494 FILLER_11_349
*495 FILLER_11_353
*496 FILLER_11_358
*497 FILLER_11_365
*498 FILLER_11_377
*499 FILLER_11_383
*500 FILLER_11_391
*501 FILLER_11_393
*502 FILLER_11_401
*503 FILLER_11_408
*504 FILLER_11_421
*505 FILLER_11_433
*506 FILLER_11_445
*507 FILLER_11_449
*508 FILLER_11_45
*509 FILLER_11_453
*510 FILLER_11_458
*511 FILLER_11_470
*512 FILLER_11_477
*513 FILLER_11_483
*514 FILLER_11_53
*515 FILLER_11_61
*516 FILLER_11_7
*517 FILLER_11_73
*518 FILLER_11_83
*519 FILLER_11_85
*520 FILLER_11_97
*521 FILLER_1_105
*522 FILLER_1_111
*523 FILLER_1_113
*524 FILLER_1_125
*525 FILLER_1_137
*526 FILLER_1_147
*527 FILLER_1_15
*528 FILLER_1_159
*529 FILLER_1_167
*530 FILLER_1_169
*531 FILLER_1_187
*532 FILLER_1_195
*533 FILLER_1_204
*534 FILLER_1_216
*535 FILLER_1_225
*536 FILLER_1_230
*537 FILLER_1_242
*538 FILLER_1_254
*539 FILLER_1_260
*540 FILLER_1_268
*541 FILLER_1_27
*542 FILLER_1_274
*543 FILLER_1_281
*544 FILLER_1_289
*545 FILLER_1_297
*546 FILLER_1_3
*547 FILLER_1_309
*548 FILLER_1_317
*549 FILLER_1_325
*550 FILLER_1_330
*551 FILLER_1_337
*552 FILLER_1_349
*553 FILLER_1_353
*554 FILLER_1_358
*555 FILLER_1_370
*556 FILLER_1_386
*557 FILLER_1_39
*558 FILLER_1_393
*559 FILLER_1_405
*560 FILLER_1_409
*561 FILLER_1_414
*562 FILLER_1_426
*563 FILLER_1_438
*564 FILLER_1_446
*565 FILLER_1_449
*566 FILLER_1_461
*567 FILLER_1_473
*568 FILLER_1_485
*569 FILLER_1_491
*570 FILLER_1_51
*571 FILLER_1_55
*572 FILLER_1_57
*573 FILLER_1_69
*574 FILLER_1_81
*575 FILLER_1_93
*576 FILLER_2_109
*577 FILLER_2_121
*578 FILLER_2_133
*579 FILLER_2_139
*580 FILLER_2_141
*581 FILLER_2_15
*582 FILLER_2_153
*583 FILLER_2_165
*584 FILLER_2_177
*585 FILLER_2_189
*586 FILLER_2_195
*587 FILLER_2_197
*588 FILLER_2_209
*589 FILLER_2_221
*590 FILLER_2_233
*591 FILLER_2_245
*592 FILLER_2_249
*593 FILLER_2_256
*594 FILLER_2_268
*595 FILLER_2_27
*596 FILLER_2_280
*597 FILLER_2_29
*598 FILLER_2_292
*599 FILLER_2_296
*600 FILLER_2_3
*601 FILLER_2_302
*602 FILLER_2_309
*603 FILLER_2_313
*604 FILLER_2_318
*605 FILLER_2_324
*606 FILLER_2_331
*607 FILLER_2_337
*608 FILLER_2_344
*609 FILLER_2_351
*610 FILLER_2_363
*611 FILLER_2_365
*612 FILLER_2_377
*613 FILLER_2_389
*614 FILLER_2_401
*615 FILLER_2_41
*616 FILLER_2_413
*617 FILLER_2_419
*618 FILLER_2_421
*619 FILLER_2_433
*620 FILLER_2_445
*621 FILLER_2_457
*622 FILLER_2_469
*623 FILLER_2_475
*624 FILLER_2_477
*625 FILLER_2_485
*626 FILLER_2_502
*627 FILLER_2_53
*628 FILLER_2_65
*629 FILLER_2_77
*630 FILLER_2_83
*631 FILLER_2_85
*632 FILLER_2_97
*633 FILLER_3_110
*634 FILLER_3_113
*635 FILLER_3_125
*636 FILLER_3_137
*637 FILLER_3_149
*638 FILLER_3_15
*639 FILLER_3_161
*640 FILLER_3_167
*641 FILLER_3_169
*642 FILLER_3_181
*643 FILLER_3_187
*644 FILLER_3_194
*645 FILLER_3_206
*646 FILLER_3_218
*647 FILLER_3_225
*648 FILLER_3_237
*649 FILLER_3_249
*650 FILLER_3_261
*651 FILLER_3_27
*652 FILLER_3_273
*653 FILLER_3_279
*654 FILLER_3_281
*655 FILLER_3_293
*656 FILLER_3_3
*657 FILLER_3_305
*658 FILLER_3_317
*659 FILLER_3_329
*660 FILLER_3_335
*661 FILLER_3_337
*662 FILLER_3_349
*663 FILLER_3_361
*664 FILLER_3_373
*665 FILLER_3_385
*666 FILLER_3_39
*667 FILLER_3_391
*668 FILLER_3_393
*669 FILLER_3_405
*670 FILLER_3_417
*671 FILLER_3_428
*672 FILLER_3_440
*673 FILLER_3_454
*674 FILLER_3_466
*675 FILLER_3_478
*676 FILLER_3_490
*677 FILLER_3_51
*678 FILLER_3_55
*679 FILLER_3_57
*680 FILLER_3_65
*681 FILLER_3_71
*682 FILLER_3_79
*683 FILLER_3_86
*684 FILLER_3_98
*685 FILLER_4_109
*686 FILLER_4_11
*687 FILLER_4_121
*688 FILLER_4_133
*689 FILLER_4_139
*690 FILLER_4_141
*691 FILLER_4_153
*692 FILLER_4_165
*693 FILLER_4_177
*694 FILLER_4_189
*695 FILLER_4_195
*696 FILLER_4_20
*697 FILLER_4_200
*698 FILLER_4_212
*699 FILLER_4_221
*700 FILLER_4_233
*701 FILLER_4_245
*702 FILLER_4_251
*703 FILLER_4_253
*704 FILLER_4_265
*705 FILLER_4_277
*706 FILLER_4_283
*707 FILLER_4_29
*708 FILLER_4_295
*709 FILLER_4_3
*710 FILLER_4_307
*711 FILLER_4_309
*712 FILLER_4_321
*713 FILLER_4_333
*714 FILLER_4_345
*715 FILLER_4_357
*716 FILLER_4_363
*717 FILLER_4_365
*718 FILLER_4_37
*719 FILLER_4_377
*720 FILLER_4_389
*721 FILLER_4_401
*722 FILLER_4_413
*723 FILLER_4_419
*724 FILLER_4_421
*725 FILLER_4_43
*726 FILLER_4_433
*727 FILLER_4_445
*728 FILLER_4_457
*729 FILLER_4_469
*730 FILLER_4_47
*731 FILLER_4_475
*732 FILLER_4_477
*733 FILLER_4_489
*734 FILLER_4_51
*735 FILLER_4_55
*736 FILLER_4_59
*737 FILLER_4_71
*738 FILLER_4_83
*739 FILLER_4_85
*740 FILLER_4_97
*741 FILLER_5_104
*742 FILLER_5_108
*743 FILLER_5_113
*744 FILLER_5_125
*745 FILLER_5_129
*746 FILLER_5_140
*747 FILLER_5_15
*748 FILLER_5_152
*749 FILLER_5_157
*750 FILLER_5_169
*751 FILLER_5_176
*752 FILLER_5_181
*753 FILLER_5_193
*754 FILLER_5_205
*755 FILLER_5_217
*756 FILLER_5_223
*757 FILLER_5_230
*758 FILLER_5_238
*759 FILLER_5_242
*760 FILLER_5_251
*761 FILLER_5_262
*762 FILLER_5_27
*763 FILLER_5_274
*764 FILLER_5_289
*765 FILLER_5_3
*766 FILLER_5_301
*767 FILLER_5_313
*768 FILLER_5_325
*769 FILLER_5_333
*770 FILLER_5_337
*771 FILLER_5_349
*772 FILLER_5_361
*773 FILLER_5_373
*774 FILLER_5_385
*775 FILLER_5_39
*776 FILLER_5_391
*777 FILLER_5_393
*778 FILLER_5_405
*779 FILLER_5_417
*780 FILLER_5_429
*781 FILLER_5_441
*782 FILLER_5_447
*783 FILLER_5_449
*784 FILLER_5_461
*785 FILLER_5_473
*786 FILLER_5_485
*787 FILLER_5_493
*788 FILLER_5_51
*789 FILLER_5_55
*790 FILLER_5_57
*791 FILLER_5_69
*792 FILLER_5_75
*793 FILLER_5_82
*794 FILLER_5_91
*795 FILLER_5_99
*796 FILLER_6_109
*797 FILLER_6_121
*798 FILLER_6_133
*799 FILLER_6_139
*800 FILLER_6_141
*801 FILLER_6_145
*802 FILLER_6_149
*803 FILLER_6_15
*804 FILLER_6_161
*805 FILLER_6_173
*806 FILLER_6_181
*807 FILLER_6_189
*808 FILLER_6_195
*809 FILLER_6_197
*810 FILLER_6_205
*811 FILLER_6_217
*812 FILLER_6_229
*813 FILLER_6_241
*814 FILLER_6_249
*815 FILLER_6_253
*816 FILLER_6_265
*817 FILLER_6_27
*818 FILLER_6_277
*819 FILLER_6_289
*820 FILLER_6_29
*821 FILLER_6_3
*822 FILLER_6_301
*823 FILLER_6_307
*824 FILLER_6_309
*825 FILLER_6_321
*826 FILLER_6_333
*827 FILLER_6_341
*828 FILLER_6_349
*829 FILLER_6_361
*830 FILLER_6_365
*831 FILLER_6_377
*832 FILLER_6_389
*833 FILLER_6_401
*834 FILLER_6_41
*835 FILLER_6_413
*836 FILLER_6_419
*837 FILLER_6_421
*838 FILLER_6_433
*839 FILLER_6_445
*840 FILLER_6_457
*841 FILLER_6_469
*842 FILLER_6_475
*843 FILLER_6_477
*844 FILLER_6_489
*845 FILLER_6_53
*846 FILLER_6_65
*847 FILLER_6_77
*848 FILLER_6_83
*849 FILLER_6_85
*850 FILLER_6_97
*851 FILLER_7_105
*852 FILLER_7_111
*853 FILLER_7_113
*854 FILLER_7_125
*855 FILLER_7_137
*856 FILLER_7_149
*857 FILLER_7_15
*858 FILLER_7_161
*859 FILLER_7_167
*860 FILLER_7_169
*861 FILLER_7_181
*862 FILLER_7_193
*863 FILLER_7_205
*864 FILLER_7_217
*865 FILLER_7_223
*866 FILLER_7_225
*867 FILLER_7_230
*868 FILLER_7_242
*869 FILLER_7_254
*870 FILLER_7_266
*871 FILLER_7_27
*872 FILLER_7_278
*873 FILLER_7_281
*874 FILLER_7_293
*875 FILLER_7_3
*876 FILLER_7_305
*877 FILLER_7_317
*878 FILLER_7_329
*879 FILLER_7_335
*880 FILLER_7_337
*881 FILLER_7_349
*882 FILLER_7_358
*883 FILLER_7_370
*884 FILLER_7_382
*885 FILLER_7_39
*886 FILLER_7_390
*887 FILLER_7_393
*888 FILLER_7_405
*889 FILLER_7_417
*890 FILLER_7_429
*891 FILLER_7_441
*892 FILLER_7_447
*893 FILLER_7_452
*894 FILLER_7_458
*895 FILLER_7_462
*896 FILLER_7_474
*897 FILLER_7_486
*898 FILLER_7_51
*899 FILLER_7_55
*900 FILLER_7_57
*901 FILLER_7_69
*902 FILLER_7_81
*903 FILLER_7_93
*904 FILLER_8_109
*905 FILLER_8_121
*906 FILLER_8_133
*907 FILLER_8_139
*908 FILLER_8_141
*909 FILLER_8_15
*910 FILLER_8_153
*911 FILLER_8_163
*912 FILLER_8_175
*913 FILLER_8_187
*914 FILLER_8_194
*915 FILLER_8_197
*916 FILLER_8_209
*917 FILLER_8_221
*918 FILLER_8_233
*919 FILLER_8_245
*920 FILLER_8_251
*921 FILLER_8_253
*922 FILLER_8_265
*923 FILLER_8_269
*924 FILLER_8_27
*925 FILLER_8_275
*926 FILLER_8_283
*927 FILLER_8_29
*928 FILLER_8_295
*929 FILLER_8_3
*930 FILLER_8_307
*931 FILLER_8_309
*932 FILLER_8_321
*933 FILLER_8_333
*934 FILLER_8_345
*935 FILLER_8_357
*936 FILLER_8_363
*937 FILLER_8_365
*938 FILLER_8_377
*939 FILLER_8_389
*940 FILLER_8_401
*941 FILLER_8_41
*942 FILLER_8_413
*943 FILLER_8_419
*944 FILLER_8_421
*945 FILLER_8_426
*946 FILLER_8_434
*947 FILLER_8_440
*948 FILLER_8_452
*949 FILLER_8_464
*950 FILLER_8_475
*951 FILLER_8_477
*952 FILLER_8_485
*953 FILLER_8_496
*954 FILLER_8_53
*955 FILLER_8_65
*956 FILLER_8_77
*957 FILLER_8_83
*958 FILLER_8_85
*959 FILLER_8_97
*960 FILLER_9_105
*961 FILLER_9_111
*962 FILLER_9_122
*963 FILLER_9_134
*964 FILLER_9_146
*965 FILLER_9_15
*966 FILLER_9_152
*967 FILLER_9_164
*968 FILLER_9_169
*969 FILLER_9_181
*970 FILLER_9_185
*971 FILLER_9_197
*972 FILLER_9_209
*973 FILLER_9_221
*974 FILLER_9_225
*975 FILLER_9_242
*976 FILLER_9_254
*977 FILLER_9_266
*978 FILLER_9_27
*979 FILLER_9_278
*980 FILLER_9_281
*981 FILLER_9_293
*982 FILLER_9_3
*983 FILLER_9_305
*984 FILLER_9_317
*985 FILLER_9_329
*986 FILLER_9_335
*987 FILLER_9_337
*988 FILLER_9_345
*989 FILLER_9_352
*990 FILLER_9_364
*991 FILLER_9_376
*992 FILLER_9_388
*993 FILLER_9_39
*994 FILLER_9_393
*995 FILLER_9_405
*996 FILLER_9_412
*997 FILLER_9_421
*998 FILLER_9_429
*999 FILLER_9_434
*1000 FILLER_9_446
*1001 FILLER_9_449
*1002 FILLER_9_461
*1003 FILLER_9_473
*1004 FILLER_9_485
*1005 FILLER_9_51
*1006 FILLER_9_55
*1007 FILLER_9_57
*1008 FILLER_9_69
*1009 FILLER_9_81
*1010 FILLER_9_93
*1011 PHY_EDGE_ROW_0_Left_12
*1012 PHY_EDGE_ROW_0_Right_0
*1013 PHY_EDGE_ROW_10_Left_22
*1014 PHY_EDGE_ROW_10_Right_10
*1015 PHY_EDGE_ROW_11_Left_23
*1016 PHY_EDGE_ROW_11_Right_11
*1017 PHY_EDGE_ROW_1_Left_13
*1018 PHY_EDGE_ROW_1_Right_1
*1019 PHY_EDGE_ROW_2_Left_14
*1020 PHY_EDGE_ROW_2_Right_2
*1021 PHY_EDGE_ROW_3_Left_15
*1022 PHY_EDGE_ROW_3_Right_3
*1023 PHY_EDGE_ROW_4_Left_16
*1024 PHY_EDGE_ROW_4_Right_4
*1025 PHY_EDGE_ROW_5_Left_17
*1026 PHY_EDGE_ROW_5_Right_5
*1027 PHY_EDGE_ROW_6_Left_18
*1028 PHY_EDGE_ROW_6_Right_6
*1029 PHY_EDGE_ROW_7_Left_19
*1030 PHY_EDGE_ROW_7_Right_7
*1031 PHY_EDGE_ROW_8_Left_20
*1032 PHY_EDGE_ROW_8_Right_8
*1033 PHY_EDGE_ROW_9_Left_21
*1034 PHY_EDGE_ROW_9_Right_9
*1035 TAP_TAPCELL_ROW_0_24
*1036 TAP_TAPCELL_ROW_0_25
*1037 TAP_TAPCELL_ROW_0_26
*1038 TAP_TAPCELL_ROW_0_27
*1039 TAP_TAPCELL_ROW_0_28
*1040 TAP_TAPCELL_ROW_0_29
*1041 TAP_TAPCELL_ROW_0_30
*1042 TAP_TAPCELL_ROW_0_31
*1043 TAP_TAPCELL_ROW_0_32
*1044 TAP_TAPCELL_ROW_0_33
*1045 TAP_TAPCELL_ROW_0_34
*1046 TAP_TAPCELL_ROW_0_35
*1047 TAP_TAPCELL_ROW_0_36
*1048 TAP_TAPCELL_ROW_0_37
*1049 TAP_TAPCELL_ROW_0_38
*1050 TAP_TAPCELL_ROW_0_39
*1051 TAP_TAPCELL_ROW_0_40
*1052 TAP_TAPCELL_ROW_0_41
*1053 TAP_TAPCELL_ROW_10_123
*1054 TAP_TAPCELL_ROW_10_124
*1055 TAP_TAPCELL_ROW_10_125
*1056 TAP_TAPCELL_ROW_10_126
*1057 TAP_TAPCELL_ROW_10_127
*1058 TAP_TAPCELL_ROW_10_128
*1059 TAP_TAPCELL_ROW_10_129
*1060 TAP_TAPCELL_ROW_10_130
*1061 TAP_TAPCELL_ROW_10_131
*1062 TAP_TAPCELL_ROW_11_132
*1063 TAP_TAPCELL_ROW_11_133
*1064 TAP_TAPCELL_ROW_11_134
*1065 TAP_TAPCELL_ROW_11_135
*1066 TAP_TAPCELL_ROW_11_136
*1067 TAP_TAPCELL_ROW_11_137
*1068 TAP_TAPCELL_ROW_11_138
*1069 TAP_TAPCELL_ROW_11_139
*1070 TAP_TAPCELL_ROW_11_140
*1071 TAP_TAPCELL_ROW_11_141
*1072 TAP_TAPCELL_ROW_11_142
*1073 TAP_TAPCELL_ROW_11_143
*1074 TAP_TAPCELL_ROW_11_144
*1075 TAP_TAPCELL_ROW_11_145
*1076 TAP_TAPCELL_ROW_11_146
*1077 TAP_TAPCELL_ROW_11_147
*1078 TAP_TAPCELL_ROW_11_148
*1079 TAP_TAPCELL_ROW_11_149
*1080 TAP_TAPCELL_ROW_1_42
*1081 TAP_TAPCELL_ROW_1_43
*1082 TAP_TAPCELL_ROW_1_44
*1083 TAP_TAPCELL_ROW_1_45
*1084 TAP_TAPCELL_ROW_1_46
*1085 TAP_TAPCELL_ROW_1_47
*1086 TAP_TAPCELL_ROW_1_48
*1087 TAP_TAPCELL_ROW_1_49
*1088 TAP_TAPCELL_ROW_1_50
*1089 TAP_TAPCELL_ROW_2_51
*1090 TAP_TAPCELL_ROW_2_52
*1091 TAP_TAPCELL_ROW_2_53
*1092 TAP_TAPCELL_ROW_2_54
*1093 TAP_TAPCELL_ROW_2_55
*1094 TAP_TAPCELL_ROW_2_56
*1095 TAP_TAPCELL_ROW_2_57
*1096 TAP_TAPCELL_ROW_2_58
*1097 TAP_TAPCELL_ROW_2_59
*1098 TAP_TAPCELL_ROW_3_60
*1099 TAP_TAPCELL_ROW_3_61
*1100 TAP_TAPCELL_ROW_3_62
*1101 TAP_TAPCELL_ROW_3_63
*1102 TAP_TAPCELL_ROW_3_64
*1103 TAP_TAPCELL_ROW_3_65
*1104 TAP_TAPCELL_ROW_3_66
*1105 TAP_TAPCELL_ROW_3_67
*1106 TAP_TAPCELL_ROW_3_68
*1107 TAP_TAPCELL_ROW_4_69
*1108 TAP_TAPCELL_ROW_4_70
*1109 TAP_TAPCELL_ROW_4_71
*1110 TAP_TAPCELL_ROW_4_72
*1111 TAP_TAPCELL_ROW_4_73
*1112 TAP_TAPCELL_ROW_4_74
*1113 TAP_TAPCELL_ROW_4_75
*1114 TAP_TAPCELL_ROW_4_76
*1115 TAP_TAPCELL_ROW_4_77
*1116 TAP_TAPCELL_ROW_5_78
*1117 TAP_TAPCELL_ROW_5_79
*1118 TAP_TAPCELL_ROW_5_80
*1119 TAP_TAPCELL_ROW_5_81
*1120 TAP_TAPCELL_ROW_5_82
*1121 TAP_TAPCELL_ROW_5_83
*1122 TAP_TAPCELL_ROW_5_84
*1123 TAP_TAPCELL_ROW_5_85
*1124 TAP_TAPCELL_ROW_5_86
*1125 TAP_TAPCELL_ROW_6_87
*1126 TAP_TAPCELL_ROW_6_88
*1127 TAP_TAPCELL_ROW_6_89
*1128 TAP_TAPCELL_ROW_6_90
*1129 TAP_TAPCELL_ROW_6_91
*1130 TAP_TAPCELL_ROW_6_92
*1131 TAP_TAPCELL_ROW_6_93
*1132 TAP_TAPCELL_ROW_6_94
*1133 TAP_TAPCELL_ROW_6_95
*1134 TAP_TAPCELL_ROW_7_100
*1135 TAP_TAPCELL_ROW_7_101
*1136 TAP_TAPCELL_ROW_7_102
*1137 TAP_TAPCELL_ROW_7_103
*1138 TAP_TAPCELL_ROW_7_104
*1139 TAP_TAPCELL_ROW_7_96
*1140 TAP_TAPCELL_ROW_7_97
*1141 TAP_TAPCELL_ROW_7_98
*1142 TAP_TAPCELL_ROW_7_99
*1143 TAP_TAPCELL_ROW_8_105
*1144 TAP_TAPCELL_ROW_8_106
*1145 TAP_TAPCELL_ROW_8_107
*1146 TAP_TAPCELL_ROW_8_108
*1147 TAP_TAPCELL_ROW_8_109
*1148 TAP_TAPCELL_ROW_8_110
*1149 TAP_TAPCELL_ROW_8_111
*1150 TAP_TAPCELL_ROW_8_112
*1151 TAP_TAPCELL_ROW_8_113
*1152 TAP_TAPCELL_ROW_9_114
*1153 TAP_TAPCELL_ROW_9_115
*1154 TAP_TAPCELL_ROW_9_116
*1155 TAP_TAPCELL_ROW_9_117
*1156 TAP_TAPCELL_ROW_9_118
*1157 TAP_TAPCELL_ROW_9_119
*1158 TAP_TAPCELL_ROW_9_120
*1159 TAP_TAPCELL_ROW_9_121
*1160 TAP_TAPCELL_ROW_9_122
*1161 _000_
*1162 _001_
*1163 _002_
*1164 _003_
*1165 _004_
*1166 _005_
*1167 _006_
*1168 _007_
*1169 _008_
*1170 _009_
*1171 _010_
*1172 _011_
*1173 _012_
*1174 _013_
*1175 _014_
*1176 _015_
*1177 _016_
*1178 _017_
*1179 _018_
*1180 _019_
*1181 _020_
*1182 _021_
*1183 _022_
*1184 _023_
*1185 _024_
*1186 _025_
*1187 _026_
*1188 _027_
*1189 _028_
*1190 _029_
*1191 _030_
*1192 _031_
*1193 _032_
*1194 _033_
*1195 _034_
*1196 _035_
*1197 _036_
*1198 _037_
*1199 _038_
*1200 _039_
*1201 _040_
*1202 _041_
*1203 _042_
*1204 _043_
*1205 _044_
*1206 _045_
*1207 _046_
*1208 _047_
*1209 _048_
*1210 _049_
*1211 _050_
*1212 _051_
*1213 _052_
*1214 _053_
*1215 _054_
*1216 _055_
*1217 _056_
*1218 _057_
*1219 _058_
*1220 _059_
*1221 _060_
*1222 _061_
*1223 _062_
*1224 _063_
*1225 _064_
*1226 _065_
*1227 _066_
*1228 _067_
*1229 _068_
*1230 _069_
*1231 _070_
*1232 _071_
*1233 _072_
*1234 _073_
*1235 _074_
*1236 _075_
*1237 _076_
*1238 _077_
*1239 _078_
*1240 _079_
*1241 _080_
*1242 _081_
*1243 _082_
*1244 _083_
*1245 _084_
*1246 _085_
*1247 _086_
*1248 _087_
*1249 _088_
*1250 _089_
*1251 _090_
*1252 _091_
*1253 _092_
*1254 _093_
*1255 _094_
*1256 _095_
*1257 _096_
*1258 _097_
*1259 _098_
*1260 _099_
*1261 _100_
*1262 _101_
*1263 _102_
*1264 _103_
*1265 _104_
*1266 output1
*1267 output10
*1268 output100
*1269 output101
*1270 output102
*1271 output103
*1272 output104
*1273 output105
*1274 output11
*1275 output12
*1276 output13
*1277 output14
*1278 output15
*1279 output16
*1280 output17
*1281 output18
*1282 output19
*1283 output2
*1284 output20
*1285 output21
*1286 output22
*1287 output23
*1288 output24
*1289 output25
*1290 output26
*1291 output27
*1292 output28
*1293 output29
*1294 output3
*1295 output30
*1296 output31
*1297 output32
*1298 output33
*1299 output34
*1300 output35
*1301 output36
*1302 output37
*1303 output38
*1304 output39
*1305 output4
*1306 output40
*1307 output41
*1308 output42
*1309 output43
*1310 output44
*1311 output45
*1312 output46
*1313 output47
*1314 output48
*1315 output49
*1316 output5
*1317 output50
*1318 output51
*1319 output52
*1320 output53
*1321 output54
*1322 output55
*1323 output56
*1324 output57
*1325 output58
*1326 output59
*1327 output6
*1328 output60
*1329 output61
*1330 output62
*1331 output63
*1332 output64
*1333 output65
*1334 output66
*1335 output67
*1336 output68
*1337 output69
*1338 output7
*1339 output70
*1340 output71
*1341 output72
*1342 output73
*1343 output74
*1344 output75
*1345 output76
*1346 output77
*1347 output78
*1348 output79
*1349 output8
*1350 output80
*1351 output81
*1352 output82
*1353 output83
*1354 output84
*1355 output85
*1356 output86
*1357 output87
*1358 output88
*1359 output89
*1360 output9
*1361 output90
*1362 output91
*1363 output92
*1364 output93
*1365 output94
*1366 output95
*1367 output96
*1368 output97
*1369 output98
*1370 output99

*PORTS
FrameData[0] I
FrameData[10] I
FrameData[11] I
FrameData[12] I
FrameData[13] I
FrameData[14] I
FrameData[15] I
FrameData[16] I
FrameData[17] I
FrameData[18] I
FrameData[19] I
FrameData[1] I
FrameData[20] I
FrameData[21] I
FrameData[22] I
FrameData[23] I
FrameData[24] I
FrameData[25] I
FrameData[26] I
FrameData[27] I
FrameData[28] I
FrameData[29] I
FrameData[2] I
FrameData[30] I
FrameData[31] I
FrameData[3] I
FrameData[4] I
FrameData[5] I
FrameData[6] I
FrameData[7] I
FrameData[8] I
FrameData[9] I
FrameData_O[0] O
FrameData_O[10] O
FrameData_O[11] O
FrameData_O[12] O
FrameData_O[13] O
FrameData_O[14] O
FrameData_O[15] O
FrameData_O[16] O
FrameData_O[17] O
FrameData_O[18] O
FrameData_O[19] O
FrameData_O[1] O
FrameData_O[20] O
FrameData_O[21] O
FrameData_O[22] O
FrameData_O[23] O
FrameData_O[24] O
FrameData_O[25] O
FrameData_O[26] O
FrameData_O[27] O
FrameData_O[28] O
FrameData_O[29] O
FrameData_O[2] O
FrameData_O[30] O
FrameData_O[31] O
FrameData_O[3] O
FrameData_O[4] O
FrameData_O[5] O
FrameData_O[6] O
FrameData_O[7] O
FrameData_O[8] O
FrameData_O[9] O
FrameStrobe[0] I
FrameStrobe[10] I
FrameStrobe[11] I
FrameStrobe[12] I
FrameStrobe[13] I
FrameStrobe[14] I
FrameStrobe[15] I
FrameStrobe[16] I
FrameStrobe[17] I
FrameStrobe[18] I
FrameStrobe[19] I
FrameStrobe[1] I
FrameStrobe[2] I
FrameStrobe[3] I
FrameStrobe[4] I
FrameStrobe[5] I
FrameStrobe[6] I
FrameStrobe[7] I
FrameStrobe[8] I
FrameStrobe[9] I
FrameStrobe_O[0] O
FrameStrobe_O[10] O
FrameStrobe_O[11] O
FrameStrobe_O[12] O
FrameStrobe_O[13] O
FrameStrobe_O[14] O
FrameStrobe_O[15] O
FrameStrobe_O[16] O
FrameStrobe_O[17] O
FrameStrobe_O[18] O
FrameStrobe_O[19] O
FrameStrobe_O[1] O
FrameStrobe_O[2] O
FrameStrobe_O[3] O
FrameStrobe_O[4] O
FrameStrobe_O[5] O
FrameStrobe_O[6] O
FrameStrobe_O[7] O
FrameStrobe_O[8] O
FrameStrobe_O[9] O
N1END[0] I
N1END[1] I
N1END[2] I
N1END[3] I
N2END[0] I
N2END[1] I
N2END[2] I
N2END[3] I
N2END[4] I
N2END[5] I
N2END[6] I
N2END[7] I
N2MID[0] I
N2MID[1] I
N2MID[2] I
N2MID[3] I
N2MID[4] I
N2MID[5] I
N2MID[6] I
N2MID[7] I
N4END[0] I
N4END[10] I
N4END[11] I
N4END[12] I
N4END[13] I
N4END[14] I
N4END[15] I
N4END[1] I
N4END[2] I
N4END[3] I
N4END[4] I
N4END[5] I
N4END[6] I
N4END[7] I
N4END[8] I
N4END[9] I
NN4END[0] I
NN4END[10] I
NN4END[11] I
NN4END[12] I
NN4END[13] I
NN4END[14] I
NN4END[15] I
NN4END[1] I
NN4END[2] I
NN4END[3] I
NN4END[4] I
NN4END[5] I
NN4END[6] I
NN4END[7] I
NN4END[8] I
NN4END[9] I
S1BEG[0] O
S1BEG[1] O
S1BEG[2] O
S1BEG[3] O
S2BEG[0] O
S2BEG[1] O
S2BEG[2] O
S2BEG[3] O
S2BEG[4] O
S2BEG[5] O
S2BEG[6] O
S2BEG[7] O
S2BEGb[0] O
S2BEGb[1] O
S2BEGb[2] O
S2BEGb[3] O
S2BEGb[4] O
S2BEGb[5] O
S2BEGb[6] O
S2BEGb[7] O
S4BEG[0] O
S4BEG[10] O
S4BEG[11] O
S4BEG[12] O
S4BEG[13] O
S4BEG[14] O
S4BEG[15] O
S4BEG[1] O
S4BEG[2] O
S4BEG[3] O
S4BEG[4] O
S4BEG[5] O
S4BEG[6] O
S4BEG[7] O
S4BEG[8] O
S4BEG[9] O
SS4BEG[0] O
SS4BEG[10] O
SS4BEG[11] O
SS4BEG[12] O
SS4BEG[13] O
SS4BEG[14] O
SS4BEG[15] O
SS4BEG[1] O
SS4BEG[2] O
SS4BEG[3] O
SS4BEG[4] O
SS4BEG[5] O
SS4BEG[6] O
SS4BEG[7] O
SS4BEG[8] O
SS4BEG[9] O
UserCLK I
UserCLKo O

*D_NET *1 0.00353173
*CONN
*P FrameData[0] I
*I *1161:A I *D sky130_fd_sc_hd__clkbuf_2
*CAP
1 FrameData[0] 0.00125519
2 *1161:A 0
3 *1:13 0.00125519
4 *1:13 *12:11 0.000367634
5 *1:13 *23:11 0.000593501
6 *1:13 *32:11 6.02127e-05
7 *1:13 *105:5 0
*RES
1 FrameData[0] *1:13 44.3143 
2 *1:13 *1161:A 23 
*END

*D_NET *2 0.0434912
*CONN
*P FrameData[10] I
*I *1171:A I *D sky130_fd_sc_hd__clkbuf_1
*I *318:DIODE I *D sky130_fd_sc_hd__diode_2
*CAP
1 FrameData[10] 0.00988569
2 *1171:A 6.02035e-05
3 *318:DIODE 0
4 *2:11 6.02035e-05
5 *2:9 0.00988569
6 *1171:A *29:13 9.41704e-05
7 *2:9 *3:11 0.000133848
8 *2:9 *4:9 0.000584453
9 *2:9 *5:15 0.00340774
10 *2:9 *23:25 0.000216853
11 *2:9 *27:27 0
12 *2:9 *28:25 0.00136105
13 *2:9 *29:13 0.00110164
14 *2:9 *30:17 0.000663798
15 *2:9 *31:5 0.00134989
16 *2:9 *32:11 0.000355476
17 *2:9 *155:13 2.05503e-05
18 *2:9 *209:5 9.85586e-06
19 *2:9 *213:16 0.013686
20 *2:9 *234:6 0.000165158
21 *2:9 *238:14 0.000111283
22 *2:9 *268:26 0.000100139
23 *2:9 *274:20 0.000237506
*RES
1 FrameData[10] *2:9 45.688 
2 *2:9 *2:11 15 
3 *2:11 *318:DIODE 23 
4 *2:11 *1171:A 24.0979 
*END

*D_NET *3 0.0348364
*CONN
*P FrameData[11] I
*I *1172:A I *D sky130_fd_sc_hd__buf_1
*I *329:DIODE I *D sky130_fd_sc_hd__diode_2
*CAP
1 FrameData[11] 0.000520862
2 *1172:A 9.86826e-06
3 *329:DIODE 9.86826e-06
4 *3:21 0.00167989
5 *3:19 0.00205345
6 *3:13 0.00617964
7 *3:11 0.00632694
8 *1172:A *80:21 5.79559e-05
9 *1172:A *244:12 3.22051e-05
10 *3:11 *4:9 0.000133848
11 *3:11 *32:11 0
12 *3:13 *9:15 0.000470691
13 *3:13 *11:25 0.000242899
14 *3:13 *32:13 0.0118955
15 *3:13 *77:17 0.00105678
16 *3:13 *81:17 0.000197821
17 *3:13 *279:6 0.00121579
18 *3:21 *78:33 0.00261851
19 *2:9 *3:11 0.000133848
*RES
1 FrameData[11] *3:11 32.5689 
2 *3:11 *3:13 140.691 
3 *3:13 *3:19 35.4271 
4 *3:19 *3:21 28.7307 
5 *3:21 *329:DIODE 23 
6 *329:DIODE *1172:A 46.6214 
*END

*D_NET *4 0.0290724
*CONN
*P FrameData[12] I
*I *1173:A I *D sky130_fd_sc_hd__buf_1
*I *340:DIODE I *D sky130_fd_sc_hd__diode_2
*CAP
1 FrameData[12] 0.00580374
2 *1173:A 7.94007e-06
3 *340:DIODE 5.13354e-05
4 *4:9 0.00584714
5 *340:DIODE *226:6 5.56356e-05
6 *1173:A *321:DIODE 5.79559e-05
7 *1173:A *226:6 5.79559e-05
8 *4:9 *5:15 0.0109619
9 *4:9 *6:17 0.00181467
10 *4:9 *7:25 0.000864009
11 *4:9 *27:27 0.00139135
12 *4:9 *83:19 0
13 *4:9 *84:25 0
14 *4:9 *218:16 0.000216853
15 *4:9 *219:12 0.000367046
16 *4:9 *252:8 0
17 *4:9 *268:8 0.000544309
18 *4:9 *275:6 0.000312285
19 *2:9 *4:9 0.000584453
20 *3:11 *4:9 0.000133848
*RES