* NGSPICE file created from LUT4AB.ext - technology: ihp-sg13g2

* Black-box entry subcircuit for sg13g2_buf_1 abstract view
.subckt sg13g2_buf_1 A X VDD VSS
.ends

* Black-box entry subcircuit for sg13g2_fill_2 abstract view
.subckt sg13g2_fill_2 VDD VSS
.ends

* Black-box entry subcircuit for sg13g2_decap_4 abstract view
.subckt sg13g2_decap_4 VDD VSS
.ends

* Black-box entry subcircuit for sg13g2_nor2_1 abstract view
.subckt sg13g2_nor2_1 A B Y VDD VSS
.ends

* Black-box entry subcircuit for sg13g2_mux4_1 abstract view
.subckt sg13g2_mux4_1 S0 A0 A1 A2 A3 S1 X VDD VSS
.ends

* Black-box entry subcircuit for sg13g2_dlhq_1 abstract view
.subckt sg13g2_dlhq_1 D GATE Q VDD VSS
.ends

* Black-box entry subcircuit for sg13g2_fill_1 abstract view
.subckt sg13g2_fill_1 VDD VSS
.ends

* Black-box entry subcircuit for sg13g2_dlygate4sd1_1 abstract view
.subckt sg13g2_dlygate4sd1_1 A X VDD VSS
.ends

* Black-box entry subcircuit for sg13g2_nand2b_1 abstract view
.subckt sg13g2_nand2b_1 Y B A_N VDD VSS
.ends

* Black-box entry subcircuit for sg13g2_o21ai_1 abstract view
.subckt sg13g2_o21ai_1 B1 VDD Y VSS A1 A2
.ends

* Black-box entry subcircuit for sg13g2_nand2_1 abstract view
.subckt sg13g2_nand2_1 Y A B VDD VSS
.ends

* Black-box entry subcircuit for sg13g2_a21oi_2 abstract view
.subckt sg13g2_a21oi_2 VSS VDD B1 Y A2 A1
.ends

* Black-box entry subcircuit for sg13g2_decap_8 abstract view
.subckt sg13g2_decap_8 VDD VSS
.ends

* Black-box entry subcircuit for sg13g2_a21oi_1 abstract view
.subckt sg13g2_a21oi_1 VSS VDD A1 A2 Y B1
.ends

* Black-box entry subcircuit for sg13g2_inv_1 abstract view
.subckt sg13g2_inv_1 VDD Y A VSS
.ends

* Black-box entry subcircuit for sg13g2_mux2_1 abstract view
.subckt sg13g2_mux2_1 A0 A1 S X VDD VSS
.ends

* Black-box entry subcircuit for sg13g2_nand2_2 abstract view
.subckt sg13g2_nand2_2 Y A B VDD VSS
.ends

* Black-box entry subcircuit for sg13g2_and2_1 abstract view
.subckt sg13g2_and2_1 A B X VDD VSS
.ends

* Black-box entry subcircuit for sg13g2_nor2b_1 abstract view
.subckt sg13g2_nor2b_1 A B_N Y VDD VSS
.ends

* Black-box entry subcircuit for sg13g2_buf_2 abstract view
.subckt sg13g2_buf_2 A X VDD VSS
.ends

* Black-box entry subcircuit for sg13g2_nor3_2 abstract view
.subckt sg13g2_nor3_2 A B C Y VDD VSS
.ends

* Black-box entry subcircuit for sg13g2_a221oi_1 abstract view
.subckt sg13g2_a221oi_1 VSS VDD B2 C1 B1 A1 Y A2
.ends

* Black-box entry subcircuit for sg13g2_inv_16 abstract view
.subckt sg13g2_inv_16 A Y VDD VSS
.ends

* Black-box entry subcircuit for sg13g2_dlygate4sd3_1 abstract view
.subckt sg13g2_dlygate4sd3_1 A VDD VSS X
.ends

* Black-box entry subcircuit for sg13g2_nand3_1 abstract view
.subckt sg13g2_nand3_1 B C A Y VDD VSS
.ends

* Black-box entry subcircuit for sg13g2_a22oi_1 abstract view
.subckt sg13g2_a22oi_1 Y B1 B2 A2 A1 VDD VSS
.ends

* Black-box entry subcircuit for sg13g2_a21o_2 abstract view
.subckt sg13g2_a21o_2 A2 A1 B1 X VDD VSS
.ends

* Black-box entry subcircuit for sg13g2_or2_1 abstract view
.subckt sg13g2_or2_1 VSS VDD X B A
.ends

* Black-box entry subcircuit for sg13g2_tiehi abstract view
.subckt sg13g2_tiehi VDD VSS L_HI
.ends

* Black-box entry subcircuit for sg13g2_dfrbp_1 abstract view
.subckt sg13g2_dfrbp_1 CLK RESET_B D Q_N Q VDD VSS
.ends

* Black-box entry subcircuit for sg13g2_or3_1 abstract view
.subckt sg13g2_or3_1 A B C X VDD VSS
.ends

* Black-box entry subcircuit for sg13g2_a21o_1 abstract view
.subckt sg13g2_a21o_1 A2 A1 B1 X VDD VSS
.ends

* Black-box entry subcircuit for sg13g2_nor2_2 abstract view
.subckt sg13g2_nor2_2 A B Y VDD VSS
.ends

* Black-box entry subcircuit for sg13g2_nand2b_2 abstract view
.subckt sg13g2_nand2b_2 Y B VDD VSS A_N
.ends

* Black-box entry subcircuit for sg13g2_buf_8 abstract view
.subckt sg13g2_buf_8 A X VDD VSS
.ends

* Black-box entry subcircuit for sg13g2_or4_1 abstract view
.subckt sg13g2_or4_1 A B C D X VDD VSS
.ends

* Black-box entry subcircuit for sg13g2_nand3b_1 abstract view
.subckt sg13g2_nand3b_1 B C Y VDD VSS A_N
.ends

* Black-box entry subcircuit for sg13g2_and3_1 abstract view
.subckt sg13g2_and3_1 X A B C VDD VSS
.ends

* Black-box entry subcircuit for sg13g2_nor3_1 abstract view
.subckt sg13g2_nor3_1 A B C Y VDD VSS
.ends

* Black-box entry subcircuit for sg13g2_inv_2 abstract view
.subckt sg13g2_inv_2 Y A VDD VSS
.ends

* Black-box entry subcircuit for sg13g2_buf_16 abstract view
.subckt sg13g2_buf_16 X A VDD VSS
.ends

* Black-box entry subcircuit for sg13g2_buf_4 abstract view
.subckt sg13g2_buf_4 X A VDD VSS
.ends

* Black-box entry subcircuit for sg13g2_mux2_2 abstract view
.subckt sg13g2_mux2_2 A0 A1 S X VDD VSS
.ends

* Black-box entry subcircuit for sg13g2_nor4_2 abstract view
.subckt sg13g2_nor4_2 A B C Y VDD VSS D
.ends

* Black-box entry subcircuit for sg13g2_nor4_1 abstract view
.subckt sg13g2_nor4_1 A B C D Y VDD VSS
.ends

* Black-box entry subcircuit for sg13g2_nor2b_2 abstract view
.subckt sg13g2_nor2b_2 A B_N Y VDD VSS
.ends

.subckt LUT4AB Ci Co E1BEG[0] E1BEG[1] E1BEG[2] E1BEG[3] E1END[0] E1END[1] E1END[2]
+ E1END[3] E2BEG[0] E2BEG[1] E2BEG[2] E2BEG[3] E2BEG[4] E2BEG[5] E2BEG[6] E2BEG[7]
+ E2BEGb[0] E2BEGb[1] E2BEGb[2] E2BEGb[3] E2BEGb[4] E2BEGb[5] E2BEGb[6] E2BEGb[7]
+ E2END[0] E2END[1] E2END[2] E2END[3] E2END[4] E2END[5] E2END[6] E2END[7] E2MID[0]
+ E2MID[1] E2MID[2] E2MID[3] E2MID[4] E2MID[5] E2MID[6] E2MID[7] E6BEG[0] E6BEG[10]
+ E6BEG[11] E6BEG[1] E6BEG[2] E6BEG[3] E6BEG[4] E6BEG[5] E6BEG[6] E6BEG[7] E6BEG[8]
+ E6BEG[9] E6END[0] E6END[10] E6END[11] E6END[1] E6END[2] E6END[3] E6END[4] E6END[5]
+ E6END[6] E6END[7] E6END[8] E6END[9] EE4BEG[0] EE4BEG[10] EE4BEG[11] EE4BEG[12] EE4BEG[13]
+ EE4BEG[14] EE4BEG[15] EE4BEG[1] EE4BEG[2] EE4BEG[3] EE4BEG[4] EE4BEG[5] EE4BEG[6]
+ EE4BEG[7] EE4BEG[8] EE4BEG[9] EE4END[0] EE4END[10] EE4END[11] EE4END[12] EE4END[13]
+ EE4END[14] EE4END[15] EE4END[1] EE4END[2] EE4END[3] EE4END[4] EE4END[5] EE4END[6]
+ EE4END[7] EE4END[8] EE4END[9] FrameData[0] FrameData[10] FrameData[11] FrameData[12]
+ FrameData[13] FrameData[14] FrameData[15] FrameData[16] FrameData[17] FrameData[18]
+ FrameData[19] FrameData[1] FrameData[20] FrameData[21] FrameData[22] FrameData[23]
+ FrameData[24] FrameData[25] FrameData[26] FrameData[27] FrameData[28] FrameData[29]
+ FrameData[2] FrameData[30] FrameData[31] FrameData[3] FrameData[4] FrameData[5]
+ FrameData[6] FrameData[7] FrameData[8] FrameData[9] FrameData_O[0] FrameData_O[10]
+ FrameData_O[11] FrameData_O[12] FrameData_O[13] FrameData_O[14] FrameData_O[15]
+ FrameData_O[16] FrameData_O[17] FrameData_O[18] FrameData_O[19] FrameData_O[1] FrameData_O[20]
+ FrameData_O[21] FrameData_O[22] FrameData_O[23] FrameData_O[24] FrameData_O[25]
+ FrameData_O[26] FrameData_O[27] FrameData_O[28] FrameData_O[29] FrameData_O[2] FrameData_O[30]
+ FrameData_O[31] FrameData_O[3] FrameData_O[4] FrameData_O[5] FrameData_O[6] FrameData_O[7]
+ FrameData_O[8] FrameData_O[9] FrameStrobe[0] FrameStrobe[10] FrameStrobe[11] FrameStrobe[12]
+ FrameStrobe[13] FrameStrobe[14] FrameStrobe[15] FrameStrobe[16] FrameStrobe[17]
+ FrameStrobe[18] FrameStrobe[19] FrameStrobe[1] FrameStrobe[2] FrameStrobe[3] FrameStrobe[4]
+ FrameStrobe[5] FrameStrobe[6] FrameStrobe[7] FrameStrobe[8] FrameStrobe[9] FrameStrobe_O[0]
+ FrameStrobe_O[10] FrameStrobe_O[11] FrameStrobe_O[12] FrameStrobe_O[13] FrameStrobe_O[14]
+ FrameStrobe_O[15] FrameStrobe_O[16] FrameStrobe_O[17] FrameStrobe_O[18] FrameStrobe_O[19]
+ FrameStrobe_O[1] FrameStrobe_O[2] FrameStrobe_O[3] FrameStrobe_O[4] FrameStrobe_O[5]
+ FrameStrobe_O[6] FrameStrobe_O[7] FrameStrobe_O[8] FrameStrobe_O[9] N1BEG[0] N1BEG[1]
+ N1BEG[2] N1BEG[3] N1END[0] N1END[1] N1END[2] N1END[3] N2BEG[0] N2BEG[1] N2BEG[2]
+ N2BEG[3] N2BEG[4] N2BEG[5] N2BEG[6] N2BEG[7] N2BEGb[0] N2BEGb[1] N2BEGb[2] N2BEGb[3]
+ N2BEGb[4] N2BEGb[5] N2BEGb[6] N2BEGb[7] N2END[0] N2END[1] N2END[2] N2END[3] N2END[4]
+ N2END[5] N2END[6] N2END[7] N2MID[0] N2MID[1] N2MID[2] N2MID[3] N2MID[4] N2MID[5]
+ N2MID[6] N2MID[7] N4BEG[0] N4BEG[10] N4BEG[11] N4BEG[12] N4BEG[13] N4BEG[14] N4BEG[15]
+ N4BEG[1] N4BEG[2] N4BEG[3] N4BEG[4] N4BEG[5] N4BEG[6] N4BEG[7] N4BEG[8] N4BEG[9]
+ N4END[0] N4END[10] N4END[11] N4END[12] N4END[13] N4END[14] N4END[15] N4END[1] N4END[2]
+ N4END[3] N4END[4] N4END[5] N4END[6] N4END[7] N4END[8] N4END[9] NN4BEG[0] NN4BEG[10]
+ NN4BEG[11] NN4BEG[12] NN4BEG[13] NN4BEG[14] NN4BEG[15] NN4BEG[1] NN4BEG[2] NN4BEG[3]
+ NN4BEG[4] NN4BEG[5] NN4BEG[6] NN4BEG[7] NN4BEG[8] NN4BEG[9] NN4END[0] NN4END[10]
+ NN4END[11] NN4END[12] NN4END[13] NN4END[14] NN4END[15] NN4END[1] NN4END[2] NN4END[3]
+ NN4END[4] NN4END[5] NN4END[6] NN4END[7] NN4END[8] NN4END[9] S1BEG[0] S1BEG[1] S1BEG[2]
+ S1BEG[3] S1END[0] S1END[1] S1END[2] S1END[3] S2BEG[0] S2BEG[1] S2BEG[2] S2BEG[3]
+ S2BEG[4] S2BEG[5] S2BEG[6] S2BEG[7] S2BEGb[0] S2BEGb[1] S2BEGb[2] S2BEGb[3] S2BEGb[4]
+ S2BEGb[5] S2BEGb[6] S2BEGb[7] S2END[0] S2END[1] S2END[2] S2END[3] S2END[4] S2END[5]
+ S2END[6] S2END[7] S2MID[0] S2MID[1] S2MID[2] S2MID[3] S2MID[4] S2MID[5] S2MID[6]
+ S2MID[7] S4BEG[0] S4BEG[10] S4BEG[11] S4BEG[12] S4BEG[13] S4BEG[14] S4BEG[15] S4BEG[1]
+ S4BEG[2] S4BEG[3] S4BEG[4] S4BEG[5] S4BEG[6] S4BEG[7] S4BEG[8] S4BEG[9] S4END[0]
+ S4END[10] S4END[11] S4END[12] S4END[13] S4END[14] S4END[15] S4END[1] S4END[2] S4END[3]
+ S4END[4] S4END[5] S4END[6] S4END[7] S4END[8] S4END[9] SS4BEG[0] SS4BEG[10] SS4BEG[11]
+ SS4BEG[12] SS4BEG[13] SS4BEG[14] SS4BEG[15] SS4BEG[1] SS4BEG[2] SS4BEG[3] SS4BEG[4]
+ SS4BEG[5] SS4BEG[6] SS4BEG[7] SS4BEG[8] SS4BEG[9] SS4END[0] SS4END[10] SS4END[11]
+ SS4END[12] SS4END[13] SS4END[14] SS4END[15] SS4END[1] SS4END[2] SS4END[3] SS4END[4]
+ SS4END[5] SS4END[6] SS4END[7] SS4END[8] SS4END[9] UserCLK UserCLKo VGND VPWR W1BEG[0]
+ W1BEG[1] W1BEG[2] W1BEG[3] W1END[0] W1END[1] W1END[2] W1END[3] W2BEG[0] W2BEG[1]
+ W2BEG[2] W2BEG[3] W2BEG[4] W2BEG[5] W2BEG[6] W2BEG[7] W2BEGb[0] W2BEGb[1] W2BEGb[2]
+ W2BEGb[3] W2BEGb[4] W2BEGb[5] W2BEGb[6] W2BEGb[7] W2END[0] W2END[1] W2END[2] W2END[3]
+ W2END[4] W2END[5] W2END[6] W2END[7] W2MID[0] W2MID[1] W2MID[2] W2MID[3] W2MID[4]
+ W2MID[5] W2MID[6] W2MID[7] W6BEG[0] W6BEG[10] W6BEG[11] W6BEG[1] W6BEG[2] W6BEG[3]
+ W6BEG[4] W6BEG[5] W6BEG[6] W6BEG[7] W6BEG[8] W6BEG[9] W6END[0] W6END[10] W6END[11]
+ W6END[1] W6END[2] W6END[3] W6END[4] W6END[5] W6END[6] W6END[7] W6END[8] W6END[9]
+ WW4BEG[0] WW4BEG[10] WW4BEG[11] WW4BEG[12] WW4BEG[13] WW4BEG[14] WW4BEG[15] WW4BEG[1]
+ WW4BEG[2] WW4BEG[3] WW4BEG[4] WW4BEG[5] WW4BEG[6] WW4BEG[7] WW4BEG[8] WW4BEG[9]
+ WW4END[0] WW4END[10] WW4END[11] WW4END[12] WW4END[13] WW4END[14] WW4END[15] WW4END[1]
+ WW4END[2] WW4END[3] WW4END[4] WW4END[5] WW4END[6] WW4END[7] WW4END[8] WW4END[9]
X_3086_ E6END[5] net138 VPWR VGND sg13g2_buf_1
X_3155_ net1097 net196 VPWR VGND sg13g2_buf_1
XFILLER_39_288 VPWR VGND sg13g2_fill_2
XFILLER_39_255 VPWR VGND sg13g2_fill_2
XFILLER_39_233 VPWR VGND sg13g2_decap_4
X_2106_ Inst_LUT4AB_ConfigMem.Inst_frame3_bit25.Q _0746_ _0747_ VPWR VGND sg13g2_nor2_1
X_2037_ _0149_ Inst_LD_LUT4c_frame_config_dffesr.inst_cus_mux161_buf.A0 Inst_LD_LUT4c_frame_config_dffesr.inst_cus_mux161_buf.A2
+ Inst_LD_LUT4c_frame_config_dffesr.inst_cus_mux161_buf.A4 Inst_LD_LUT4c_frame_config_dffesr.inst_cus_mux161_buf.A6
+ _0199_ _0683_ VPWR VGND sg13g2_mux4_1
X_2939_ net1171 net1044 Inst_LUT4AB_ConfigMem.Inst_frame3_bit20.Q VPWR VGND sg13g2_dlhq_1
XFILLER_50_420 VPWR VGND sg13g2_fill_1
Xrebuffer7 Inst_LUT4AB_switch_matrix.JS2BEG4 net380 VPWR VGND sg13g2_dlygate4sd1_1
X_1270_ Inst_LUT4AB_ConfigMem.Inst_frame4_bit9.Q _1100_ _1101_ VPWR VGND sg13g2_nor2_1
XFILLER_32_431 VPWR VGND sg13g2_fill_2
X_1606_ _0269_ net987 net1004 VPWR VGND sg13g2_nand2b_1
X_2655_ net1159 net1093 Inst_LUT4AB_ConfigMem.Inst_frame12_bit24.Q VPWR VGND sg13g2_dlhq_1
X_2724_ net1144 net1104 Inst_LUT4AB_ConfigMem.Inst_frame10_bit29.Q VPWR VGND sg13g2_dlhq_1
XFILLER_59_317 VPWR VGND sg13g2_fill_2
X_3207_ NN4END[12] net263 VPWR VGND sg13g2_buf_1
X_1468_ _0134_ VPWR _0135_ VGND Inst_LUT4AB_ConfigMem.Inst_frame3_bit10.Q net936 sg13g2_o21ai_1
X_1537_ _0201_ _0149_ _0199_ VPWR VGND sg13g2_nand2_1
X_1399_ VGND VPWR _0057_ _0069_ _0061_ _0068_ sg13g2_a21oi_2
X_2586_ net1177 net1082 Inst_LUT4AB_ConfigMem.Inst_frame14_bit19.Q VPWR VGND sg13g2_dlhq_1
X_3138_ net1151 net180 VPWR VGND sg13g2_buf_1
XFILLER_27_258 VPWR VGND sg13g2_decap_8
XFILLER_27_236 VPWR VGND sg13g2_fill_1
XFILLER_27_225 VPWR VGND sg13g2_decap_8
X_3069_ Inst_LUT4AB_switch_matrix.E2BEG2 net119 VPWR VGND sg13g2_buf_1
XFILLER_50_272 VPWR VGND sg13g2_fill_1
XFILLER_37_62 VPWR VGND sg13g2_fill_1
X_2440_ net1175 net1060 Inst_LA_LUT4c_frame_config_dffesr.inst_cus_mux161_buf.A9 VPWR
+ VGND sg13g2_dlhq_1
X_1253_ Inst_LUT4AB_ConfigMem.Inst_frame7_bit28.Q net46 net17 net74 net101 Inst_LUT4AB_ConfigMem.Inst_frame7_bit29.Q
+ _1084_ VPWR VGND sg13g2_mux4_1
X_1322_ VGND VPWR Inst_LUT4AB_ConfigMem.Inst_frame2_bit6.Q net79 _1150_ _1149_ sg13g2_a21oi_1
X_2371_ Inst_LUT4AB_ConfigMem.Inst_frame14_bit26.Q net37 net52 net1211 net963 Inst_LUT4AB_ConfigMem.Inst_frame14_bit27.Q
+ Inst_LUT4AB_switch_matrix.N4BEG0 VPWR VGND sg13g2_mux4_1
X_1184_ VPWR _1017_ Inst_LUT4AB_ConfigMem.Inst_frame3_bit7.Q VGND sg13g2_inv_1
Xoutput253 net253 NN4BEG[13] VPWR VGND sg13g2_buf_1
Xoutput242 net242 N4BEG[3] VPWR VGND sg13g2_buf_1
Xoutput231 net231 N2BEGb[6] VPWR VGND sg13g2_buf_1
Xoutput220 net220 N2BEG[3] VPWR VGND sg13g2_buf_1
X_2569_ net1142 net1083 Inst_LH_LUT4c_frame_config_dffesr.inst_cus_mux161_buf.A5 VPWR
+ VGND sg13g2_dlhq_1
Xoutput264 net264 NN4BEG[9] VPWR VGND sg13g2_buf_1
X_2638_ net1122 net1096 Inst_LUT4AB_ConfigMem.Inst_frame12_bit7.Q VPWR VGND sg13g2_dlhq_1
Xoutput275 net275 S2BEG[6] VPWR VGND sg13g2_buf_1
Xoutput286 net286 S4BEG[10] VPWR VGND sg13g2_buf_1
X_2707_ net1199 net1103 Inst_LUT4AB_ConfigMem.Inst_frame10_bit12.Q VPWR VGND sg13g2_dlhq_1
Xoutput297 net297 S4BEG[6] VPWR VGND sg13g2_buf_1
XFILLER_11_456 VPWR VGND sg13g2_fill_2
XFILLER_23_31 VPWR VGND sg13g2_fill_2
XFILLER_23_42 VPWR VGND sg13g2_fill_1
XFILLER_38_309 VPWR VGND sg13g2_fill_1
XFILLER_2_198 VPWR VGND sg13g2_fill_1
XFILLER_2_176 VPWR VGND sg13g2_fill_1
XFILLER_0_46 VPWR VGND sg13g2_fill_1
X_1940_ Inst_LUT4AB_ConfigMem.Inst_frame8_bit1.Q _0585_ net981 _0588_ _0587_ Inst_LUT4AB_ConfigMem.Inst_frame8_bit2.Q
+ _0590_ VPWR VGND sg13g2_mux4_1
X_1871_ _0523_ net105 Inst_LUT4AB_ConfigMem.Inst_frame6_bit18.Q VPWR VGND sg13g2_nand2_1
X_2423_ Inst_LF_LUT4c_frame_config_dffesr.c_reset_value _0496_ _1005_ _1006_ VPWR
+ VGND sg13g2_mux2_1
X_2285_ Inst_LUT4AB_ConfigMem.Inst_frame12_bit6.Q net953 net936 net931 net929 Inst_LUT4AB_ConfigMem.Inst_frame12_bit7.Q
+ _0909_ VPWR VGND sg13g2_mux4_1
XFILLER_37_342 VPWR VGND sg13g2_decap_4
XFILLER_37_331 VPWR VGND sg13g2_decap_8
X_1236_ _1068_ Inst_LUT4AB_ConfigMem.Inst_frame3_bit7.Q _1067_ VPWR VGND sg13g2_nand2_2
X_1305_ VPWR _1134_ _1133_ VGND sg13g2_inv_1
X_2354_ Inst_LUT4AB_ConfigMem.Inst_frame11_bit8.Q net950 _0237_ Inst_LUT4AB_switch_matrix.JS2BEG0
+ net376 Inst_LUT4AB_ConfigMem.Inst_frame11_bit9.Q Inst_LUT4AB_switch_matrix.W1BEG1
+ VPWR VGND sg13g2_mux4_1
XFILLER_20_231 VPWR VGND sg13g2_decap_4
XFILLER_3_452 VPWR VGND sg13g2_fill_2
X_2070_ Inst_LUT4AB_ConfigMem.Inst_frame1_bit22.Q net974 net969 net939 net945 Inst_LUT4AB_ConfigMem.Inst_frame1_bit23.Q
+ _0713_ VPWR VGND sg13g2_mux4_1
X_2972_ net1168 net1051 Inst_LUT4AB_ConfigMem.Inst_frame2_bit21.Q VPWR VGND sg13g2_dlhq_1
X_1923_ _0574_ Inst_LUT4AB_ConfigMem.Inst_frame3_bit18.Q net13 VPWR VGND sg13g2_nand2b_1
X_1854_ Inst_LUT4AB_ConfigMem.Inst_frame4_bit21.Q _0506_ _0507_ VPWR VGND sg13g2_and2_1
X_1785_ net984 net1009 net40 net1216 net11 Inst_LUT4AB_ConfigMem.Inst_frame1_bit11.Q
+ _0441_ VPWR VGND sg13g2_mux4_1
X_2406_ _0993_ Inst_LUT4AB_ConfigMem.Inst_frame10_bit21.Q net925 VPWR VGND sg13g2_nand2_1
X_1219_ VPWR _1052_ net935 VGND sg13g2_inv_1
X_2337_ Inst_LUT4AB_ConfigMem.Inst_frame13_bit10.Q _0953_ _0954_ VPWR VGND sg13g2_nor2_1
X_2268_ Inst_LUT4AB_ConfigMem.Inst_frame12_bit27.Q VPWR _0893_ VGND Inst_LUT4AB_ConfigMem.Inst_frame12_bit26.Q
+ _0148_ sg13g2_o21ai_1
X_2199_ net1002 net1210 _0834_ VPWR VGND sg13g2_nor2b_1
XFILLER_37_194 VPWR VGND sg13g2_decap_8
XFILLER_25_378 VPWR VGND sg13g2_decap_8
XFILLER_45_62 VPWR VGND sg13g2_fill_2
X_3240_ S4END[9] net296 VPWR VGND sg13g2_buf_1
X_1570_ net20 Inst_LUT4AB_ConfigMem.Inst_frame7_bit10.Q _0233_ VPWR VGND sg13g2_nor2b_1
Xfanout1050 net1052 net1050 VPWR VGND sg13g2_buf_1
Xfanout1083 net1085 net1083 VPWR VGND sg13g2_buf_1
X_3171_ Inst_LUT4AB_switch_matrix.JN2BEG4 net221 VPWR VGND sg13g2_buf_2
Xfanout1072 net1073 net1072 VPWR VGND sg13g2_buf_1
X_2122_ _0758_ _0697_ _0752_ _0762_ VPWR VGND sg13g2_mux2_1
X_2053_ _0696_ _0697_ Inst_LUT4AB_ConfigMem.Inst_frame14_bit16.Q Inst_LUT4AB_switch_matrix.M_AD
+ VPWR VGND sg13g2_mux2_1
Xfanout1061 net1062 net1061 VPWR VGND sg13g2_buf_1
Xfanout1094 net1095 net1094 VPWR VGND sg13g2_buf_1
XFILLER_20_4 VPWR VGND sg13g2_fill_2
X_2955_ net1129 net1052 Inst_LUT4AB_ConfigMem.Inst_frame2_bit4.Q VPWR VGND sg13g2_dlhq_1
XFILLER_34_120 VPWR VGND sg13g2_decap_8
X_1837_ _0481_ Inst_LF_LUT4c_frame_config_dffesr.inst_cus_mux161_buf.A11 Inst_LF_LUT4c_frame_config_dffesr.inst_cus_mux161_buf.A10
+ Inst_LF_LUT4c_frame_config_dffesr.inst_cus_mux161_buf.A9 Inst_LF_LUT4c_frame_config_dffesr.inst_cus_mux161_buf.A8
+ _0487_ _0491_ VPWR VGND sg13g2_mux4_1
X_1906_ net48 net19 Inst_LUT4AB_ConfigMem.Inst_frame6_bit22.Q _0557_ VPWR VGND sg13g2_mux2_1
X_1768_ _0423_ VPWR _0424_ VGND Inst_LUT4AB_ConfigMem.Inst_frame0_bit9.Q _0420_ sg13g2_o21ai_1
X_2886_ net1135 net1033 Inst_LUT4AB_ConfigMem.Inst_frame5_bit31.Q VPWR VGND sg13g2_dlhq_1
X_1699_ _0357_ VPWR _0358_ VGND Inst_LUT4AB_ConfigMem.Inst_frame4_bit2.Q net93 sg13g2_o21ai_1
XFILLER_25_120 VPWR VGND sg13g2_fill_1
XFILLER_40_189 VPWR VGND sg13g2_fill_2
XFILLER_40_167 VPWR VGND sg13g2_fill_1
XFILLER_48_223 VPWR VGND sg13g2_fill_2
X_2740_ net1196 net1013 Inst_LUT4AB_ConfigMem.Inst_frame9_bit13.Q VPWR VGND sg13g2_dlhq_1
X_1622_ VGND VPWR _0283_ _0284_ Inst_LUT4AB_ConfigMem.Inst_frame0_bit12.Q Inst_LUT4AB_switch_matrix.E2BEG3
+ sg13g2_a21oi_2
X_2671_ net1119 net1101 Inst_LUT4AB_ConfigMem.Inst_frame11_bit8.Q VPWR VGND sg13g2_dlhq_1
X_3223_ Inst_LUT4AB_switch_matrix.JS2BEG4 net273 VPWR VGND sg13g2_buf_1
X_1553_ _0216_ VPWR _0217_ VGND net997 net941 sg13g2_o21ai_1
X_1484_ _0150_ net990 net966 VPWR VGND sg13g2_nand2b_1
XFILLER_54_237 VPWR VGND sg13g2_fill_2
X_3085_ E6END[4] net137 VPWR VGND sg13g2_buf_1
X_2036_ _0678_ _0681_ _0679_ _0682_ VPWR VGND sg13g2_nor3_2
X_2105_ VGND VPWR Inst_LUT4AB_ConfigMem.Inst_frame3_bit23.Q _0743_ _0746_ _0745_ sg13g2_a21oi_1
XFILLER_11_0 VPWR VGND sg13g2_fill_2
X_3154_ net1102 net195 VPWR VGND sg13g2_buf_1
X_2938_ net1177 net1045 Inst_LUT4AB_ConfigMem.Inst_frame3_bit19.Q VPWR VGND sg13g2_dlhq_1
XFILLER_10_329 VPWR VGND sg13g2_fill_2
XFILLER_22_167 VPWR VGND sg13g2_decap_8
X_2869_ net1192 net1036 Inst_LUT4AB_ConfigMem.Inst_frame5_bit14.Q VPWR VGND sg13g2_dlhq_1
XFILLER_45_237 VPWR VGND sg13g2_fill_1
Xrebuffer8 _0640_ net381 VPWR VGND sg13g2_buf_2
XFILLER_42_63 VPWR VGND sg13g2_fill_1
X_2723_ net1148 net1107 Inst_LUT4AB_ConfigMem.Inst_frame10_bit28.Q VPWR VGND sg13g2_dlhq_1
XFILLER_59_0 VPWR VGND sg13g2_fill_2
X_1605_ _0265_ _0267_ _0268_ VPWR VGND sg13g2_nor2_1
X_1536_ _0149_ _0199_ _0200_ VPWR VGND sg13g2_nor2_1
X_2585_ net1180 net1082 Inst_LUT4AB_ConfigMem.Inst_frame14_bit18.Q VPWR VGND sg13g2_dlhq_1
X_2654_ net1162 net1095 Inst_LUT4AB_ConfigMem.Inst_frame12_bit23.Q VPWR VGND sg13g2_dlhq_1
X_3206_ NN4END[11] net262 VPWR VGND sg13g2_buf_1
X_1467_ _0134_ Inst_LUT4AB_ConfigMem.Inst_frame3_bit10.Q Inst_LUT4AB_switch_matrix.M_EF
+ VPWR VGND sg13g2_nand2b_1
X_3137_ net1154 net179 VPWR VGND sg13g2_buf_1
X_1398_ VGND VPWR _1160_ _0052_ _0067_ _0050_ _0068_ _0049_ sg13g2_a221oi_1
X_2019_ _0667_ Inst_LH_LUT4c_frame_config_dffesr.LUT_flop Inst_LH_LUT4c_frame_config_dffesr.c_out_mux
+ VPWR VGND sg13g2_nand2_1
X_3068_ net382 net118 VPWR VGND sg13g2_buf_1
XFILLER_23_432 VPWR VGND sg13g2_fill_1
XFILLER_53_73 VPWR VGND sg13g2_fill_1
XFILLER_5_174 VPWR VGND sg13g2_fill_1
X_2370_ Inst_LUT4AB_ConfigMem.Inst_frame14_bit28.Q net38 net53 net1213 net958 Inst_LUT4AB_ConfigMem.Inst_frame14_bit29.Q
+ Inst_LUT4AB_switch_matrix.N4BEG1 VPWR VGND sg13g2_mux4_1
X_1252_ Inst_LUT4AB_ConfigMem.Inst_frame8_bit28.Q net16 net73 net100 Inst_LUT4AB_switch_matrix.E2BEG3
+ Inst_LUT4AB_ConfigMem.Inst_frame8_bit29.Q _1083_ VPWR VGND sg13g2_mux4_1
X_1321_ Inst_LUT4AB_ConfigMem.Inst_frame2_bit6.Q net67 _1149_ VPWR VGND sg13g2_nor2b_1
X_1183_ VPWR _1016_ net1217 VGND sg13g2_inv_1
X_2706_ net1202 net1104 Inst_LUT4AB_ConfigMem.Inst_frame10_bit11.Q VPWR VGND sg13g2_dlhq_1
XFILLER_20_424 VPWR VGND sg13g2_fill_1
Xoutput210 net210 FrameStrobe_O[7] VPWR VGND sg13g2_buf_1
X_2568_ net1176 net1083 Inst_LH_LUT4c_frame_config_dffesr.inst_cus_mux161_buf.A4 VPWR
+ VGND sg13g2_dlhq_1
Xoutput254 Inst_LUT4AB_switch_matrix.NN4BEG2 NN4BEG[14] VPWR VGND sg13g2_buf_1
Xoutput232 net232 N2BEGb[7] VPWR VGND sg13g2_buf_1
X_1519_ _0183_ VPWR _0184_ VGND net60 net988 sg13g2_o21ai_1
Xoutput243 net243 N4BEG[4] VPWR VGND sg13g2_buf_1
X_2637_ net1123 net1096 Inst_LUT4AB_ConfigMem.Inst_frame12_bit6.Q VPWR VGND sg13g2_dlhq_1
Xoutput221 net221 N2BEG[4] VPWR VGND sg13g2_buf_1
X_2499_ net1148 net1070 Inst_LD_LUT4c_frame_config_dffesr.inst_cus_mux161_buf.A11
+ VPWR VGND sg13g2_dlhq_1
Xoutput265 net265 S1BEG[0] VPWR VGND sg13g2_buf_1
Xoutput276 net276 S2BEG[7] VPWR VGND sg13g2_buf_1
Xoutput298 net298 S4BEG[7] VPWR VGND sg13g2_buf_1
Xoutput287 net287 S4BEG[11] VPWR VGND sg13g2_buf_1
XFILLER_55_376 VPWR VGND sg13g2_fill_1
X_1870_ _0522_ net78 Inst_LUT4AB_ConfigMem.Inst_frame6_bit18.Q VPWR VGND sg13g2_nand2b_1
X_2422_ _1005_ Inst_LUT4AB_ConfigMem.Inst_frame9_bit29.Q net925 VPWR VGND sg13g2_nand2_1
X_2353_ Inst_LUT4AB_ConfigMem.Inst_frame11_bit11.Q net934 Inst_LUT4AB_switch_matrix.JS2BEG1
+ net980 _0623_ Inst_LUT4AB_ConfigMem.Inst_frame11_bit10.Q Inst_LUT4AB_switch_matrix.W1BEG2
+ VPWR VGND sg13g2_mux4_1
X_2284_ Inst_LUT4AB_ConfigMem.Inst_frame12_bit6.Q _1158_ _0196_ _0276_ _0556_ Inst_LUT4AB_ConfigMem.Inst_frame12_bit7.Q
+ _0908_ VPWR VGND sg13g2_mux4_1
X_1235_ net934 net928 Inst_LUT4AB_ConfigMem.Inst_frame3_bit6.Q _1067_ VPWR VGND sg13g2_mux2_1
X_1304_ Inst_LUT4AB_ConfigMem.Inst_frame3_bit31.Q net57 net24 net1217 net1212 Inst_LUT4AB_ConfigMem.Inst_frame3_bit30.Q
+ _1133_ VPWR VGND sg13g2_mux4_1
X_1999_ Inst_LUT4AB_ConfigMem.Inst_frame8_bit14.Q VPWR _0647_ VGND Inst_LUT4AB_ConfigMem.Inst_frame8_bit13.Q
+ _0538_ sg13g2_o21ai_1
XFILLER_43_357 VPWR VGND sg13g2_fill_1
XFILLER_50_96 VPWR VGND sg13g2_fill_2
XFILLER_7_269 VPWR VGND sg13g2_fill_1
Xfanout1210 net1211 net1210 VPWR VGND sg13g2_buf_1
X_2971_ net1171 net1051 Inst_LUT4AB_ConfigMem.Inst_frame2_bit20.Q VPWR VGND sg13g2_dlhq_1
X_1922_ _0572_ Inst_LUT4AB_ConfigMem.Inst_frame3_bit21.Q _0573_ VPWR VGND sg13g2_nor2b_1
X_1853_ _0505_ VPWR _0506_ VGND Inst_LUT4AB_ConfigMem.Inst_frame4_bit19.Q _0504_ sg13g2_o21ai_1
X_1784_ VGND VPWR _0439_ _0440_ _0433_ _1039_ sg13g2_a21oi_2
XFILLER_41_0 VPWR VGND sg13g2_fill_1
X_2336_ Inst_LUT4AB_ConfigMem.Inst_frame13_bit9.Q net1010 net87 net1217 net973 Inst_LUT4AB_ConfigMem.Inst_frame13_bit8.Q
+ _0953_ VPWR VGND sg13g2_mux4_1
X_2405_ _0992_ Inst_LUT4AB_ConfigMem.Inst_frame10_bit12.Q net927 VPWR VGND sg13g2_nand2b_1
X_1218_ net951 _1051_ VPWR VGND sg13g2_inv_16
X_2198_ VGND VPWR _1028_ net1002 _0833_ _0832_ sg13g2_a21oi_1
X_2267_ _0887_ _0892_ Inst_LUT4AB_switch_matrix.SS4BEG1 VPWR VGND sg13g2_nor2_1
Xhold20 Inst_LF_LUT4c_frame_config_dffesr.LUT_flop VPWR VGND net393 sg13g2_dlygate4sd3_1
XFILLER_0_423 VPWR VGND sg13g2_fill_1
XFILLER_45_52 VPWR VGND sg13g2_fill_1
XFILLER_45_41 VPWR VGND sg13g2_fill_1
XFILLER_43_154 VPWR VGND sg13g2_decap_4
XFILLER_43_143 VPWR VGND sg13g2_decap_4
XFILLER_31_316 VPWR VGND sg13g2_decap_8
XFILLER_16_357 VPWR VGND sg13g2_fill_1
Xfanout1040 net1041 net1040 VPWR VGND sg13g2_buf_1
X_3170_ Inst_LUT4AB_switch_matrix.JN2BEG3 net220 VPWR VGND sg13g2_buf_1
Xfanout1084 net1085 net1084 VPWR VGND sg13g2_buf_1
Xfanout1051 net1052 net1051 VPWR VGND sg13g2_buf_1
X_2121_ Inst_LUT4AB_ConfigMem.Inst_frame14_bit17.Q _0760_ _0759_ _0761_ VPWR VGND
+ sg13g2_nor3_2
X_2052_ _0696_ net930 _0693_ _0697_ VPWR VGND sg13g2_mux2_1
Xfanout1073 net1074 net1073 VPWR VGND sg13g2_buf_1
Xfanout1095 FrameStrobe[12] net1095 VPWR VGND sg13g2_buf_1
XFILLER_13_4 VPWR VGND sg13g2_fill_1
Xfanout1062 FrameStrobe[18] net1062 VPWR VGND sg13g2_buf_1
X_1905_ _0554_ VPWR _0556_ VGND Inst_LUT4AB_ConfigMem.Inst_frame7_bit23.Q _0555_ sg13g2_o21ai_1
X_2954_ net1132 net1050 Inst_LUT4AB_ConfigMem.Inst_frame2_bit3.Q VPWR VGND sg13g2_dlhq_1
X_2885_ net1138 net1032 Inst_LUT4AB_ConfigMem.Inst_frame5_bit30.Q VPWR VGND sg13g2_dlhq_1
XFILLER_22_305 VPWR VGND sg13g2_decap_4
X_1836_ _0490_ _0486_ _0487_ VPWR VGND sg13g2_nand2_1
X_1698_ _0357_ Inst_LUT4AB_ConfigMem.Inst_frame4_bit2.Q _1030_ VPWR VGND sg13g2_nand2_1
X_1767_ Inst_LUT4AB_ConfigMem.Inst_frame0_bit9.Q _0422_ _0421_ _0423_ VPWR VGND sg13g2_nand3_1
X_2319_ Inst_LUT4AB_ConfigMem.Inst_frame13_bit23.Q net1008 net61 net1215 net960 Inst_LUT4AB_ConfigMem.Inst_frame13_bit22.Q
+ _0938_ VPWR VGND sg13g2_mux4_1
XFILLER_15_22 VPWR VGND sg13g2_fill_2
Xinput110 WW4END[2] net110 VPWR VGND sg13g2_buf_1
XFILLER_48_268 VPWR VGND sg13g2_fill_2
XFILLER_44_452 VPWR VGND sg13g2_fill_2
XFILLER_31_168 VPWR VGND sg13g2_fill_1
XFILLER_31_124 VPWR VGND sg13g2_fill_1
X_1552_ _0216_ net997 net946 VPWR VGND sg13g2_nand2b_1
X_2670_ net1120 net1101 Inst_LUT4AB_ConfigMem.Inst_frame11_bit7.Q VPWR VGND sg13g2_dlhq_1
X_1621_ Inst_LUT4AB_ConfigMem.Inst_frame0_bit12.Q net81 _0283_ VPWR VGND sg13g2_nor2b_1
X_2104_ Inst_LUT4AB_ConfigMem.Inst_frame3_bit24.Q VPWR _0745_ VGND Inst_LUT4AB_ConfigMem.Inst_frame3_bit23.Q
+ _0744_ sg13g2_o21ai_1
X_1483_ Inst_LUT4AB_ConfigMem.Inst_frame9_bit3.Q _0147_ _0148_ _0130_ _0129_ Inst_LUT4AB_ConfigMem.Inst_frame9_bit4.Q
+ _0149_ VPWR VGND sg13g2_mux4_1
X_3153_ net1106 net194 VPWR VGND sg13g2_buf_1
X_3222_ Inst_LUT4AB_switch_matrix.JS2BEG3 net272 VPWR VGND sg13g2_buf_1
X_3084_ E6END[3] net136 VPWR VGND sg13g2_buf_1
X_2035_ _0680_ _0676_ _0681_ VPWR VGND sg13g2_nor2b_1
X_2937_ net1180 net1045 Inst_LUT4AB_ConfigMem.Inst_frame3_bit18.Q VPWR VGND sg13g2_dlhq_1
X_2868_ net1195 net1035 Inst_LUT4AB_ConfigMem.Inst_frame5_bit13.Q VPWR VGND sg13g2_dlhq_1
XFILLER_22_179 VPWR VGND sg13g2_fill_1
X_2799_ net1119 net1022 Inst_LUT4AB_ConfigMem.Inst_frame7_bit8.Q VPWR VGND sg13g2_dlhq_1
X_1819_ _0473_ _0470_ _0472_ _0469_ Inst_LUT4AB_ConfigMem.Inst_frame9_bit28.Q VPWR
+ VGND sg13g2_a22oi_1
XFILLER_53_260 VPWR VGND sg13g2_fill_1
XFILLER_26_98 VPWR VGND sg13g2_fill_1
Xrebuffer9 Inst_LUT4AB_switch_matrix.E2BEG1 net382 VPWR VGND sg13g2_dlygate4sd1_1
X_2722_ net1151 net1106 Inst_LUT4AB_ConfigMem.Inst_frame10_bit27.Q VPWR VGND sg13g2_dlhq_1
XFILLER_59_319 VPWR VGND sg13g2_fill_1
X_2584_ net1185 net1085 Inst_LUT4AB_ConfigMem.Inst_frame14_bit17.Q VPWR VGND sg13g2_dlhq_1
X_1604_ _1042_ VPWR _0267_ VGND Inst_LUT4AB_ConfigMem.Inst_frame2_bit15.Q _0266_ sg13g2_o21ai_1
X_1535_ Inst_LUT4AB_ConfigMem.Inst_frame9_bit5.Q _0197_ _0198_ _0170_ _0169_ Inst_LUT4AB_ConfigMem.Inst_frame9_bit6.Q
+ _0199_ VPWR VGND sg13g2_mux4_1
X_2653_ net1166 net1095 Inst_LUT4AB_ConfigMem.Inst_frame12_bit22.Q VPWR VGND sg13g2_dlhq_1
X_3205_ NN4END[10] net261 VPWR VGND sg13g2_buf_1
X_1466_ net959 net954 Inst_LUT4AB_ConfigMem.Inst_frame3_bit10.Q _0133_ VPWR VGND sg13g2_mux2_1
X_3136_ net1157 net178 VPWR VGND sg13g2_buf_1
X_1397_ _0067_ _0064_ _0066_ _0063_ _0062_ VPWR VGND sg13g2_a22oi_1
X_3067_ Inst_LUT4AB_switch_matrix.E2BEG0 net117 VPWR VGND sg13g2_buf_2
X_2018_ VGND VPWR _0659_ _0666_ _0665_ _0661_ sg13g2_a21oi_2
XFILLER_2_359 VPWR VGND sg13g2_fill_1
X_1320_ VGND VPWR _1147_ _1025_ _1145_ _1024_ _1148_ _1143_ sg13g2_a221oi_1
X_1251_ _1082_ _1019_ _1075_ Inst_LUT4AB_switch_matrix.E2BEG3 VPWR VGND sg13g2_a21o_2
X_1182_ VPWR _1015_ Inst_LUT4AB_ConfigMem.Inst_frame4_bit8.Q VGND sg13g2_inv_1
XFILLER_24_208 VPWR VGND sg13g2_fill_2
Xoutput200 net200 FrameStrobe_O[16] VPWR VGND sg13g2_buf_1
X_2636_ net1127 net1096 Inst_LUT4AB_ConfigMem.Inst_frame12_bit5.Q VPWR VGND sg13g2_dlhq_1
X_2705_ net1204 net1104 Inst_LUT4AB_ConfigMem.Inst_frame10_bit10.Q VPWR VGND sg13g2_dlhq_1
Xoutput255 Inst_LUT4AB_switch_matrix.NN4BEG3 NN4BEG[15] VPWR VGND sg13g2_buf_1
Xoutput244 net244 N4BEG[5] VPWR VGND sg13g2_buf_1
Xoutput211 net211 FrameStrobe_O[8] VPWR VGND sg13g2_buf_1
X_2567_ net1208 net1086 Inst_LH_LUT4c_frame_config_dffesr.inst_cus_mux161_buf.A3 VPWR
+ VGND sg13g2_dlhq_1
Xoutput222 Inst_LUT4AB_switch_matrix.JN2BEG5 N2BEG[5] VPWR VGND sg13g2_buf_1
X_1518_ _0183_ net988 net68 VPWR VGND sg13g2_nand2b_1
Xoutput233 net233 N4BEG[0] VPWR VGND sg13g2_buf_1
X_2498_ net1150 net1069 Inst_LD_LUT4c_frame_config_dffesr.inst_cus_mux161_buf.A10
+ VPWR VGND sg13g2_dlhq_1
Xoutput266 net266 S1BEG[1] VPWR VGND sg13g2_buf_1
Xoutput277 net277 S2BEGb[0] VPWR VGND sg13g2_buf_1
Xoutput299 net299 S4BEG[8] VPWR VGND sg13g2_buf_1
Xoutput288 net288 S4BEG[12] VPWR VGND sg13g2_buf_1
X_1449_ net975 net970 net993 _0117_ VPWR VGND sg13g2_mux2_1
X_3119_ net1117 net191 VPWR VGND sg13g2_buf_1
XFILLER_7_418 VPWR VGND sg13g2_fill_2
XFILLER_11_458 VPWR VGND sg13g2_fill_1
XFILLER_2_167 VPWR VGND sg13g2_fill_2
X_2421_ _1004_ Inst_LUT4AB_ConfigMem.Inst_frame9_bit20.Q net927 VPWR VGND sg13g2_nand2b_1
X_2283_ VGND VPWR Inst_LUT4AB_ConfigMem.Inst_frame12_bit8.Q Inst_LUT4AB_ConfigMem.Inst_frame12_bit9.Q
+ _0906_ _0902_ _0907_ _0905_ sg13g2_a221oi_1
X_1303_ _1131_ Inst_LUT4AB_ConfigMem.Inst_frame2_bit1.Q _1132_ VPWR VGND sg13g2_nor2b_1
X_2352_ Inst_LUT4AB_ConfigMem.Inst_frame11_bit12.Q A _1159_ Inst_LUT4AB_switch_matrix.JS2BEG2
+ _1118_ Inst_LUT4AB_ConfigMem.Inst_frame11_bit13.Q Inst_LUT4AB_switch_matrix.W1BEG3
+ VPWR VGND sg13g2_mux4_1
XFILLER_49_193 VPWR VGND sg13g2_fill_2
XFILLER_37_355 VPWR VGND sg13g2_fill_1
X_1234_ Inst_LUT4AB_ConfigMem.Inst_frame6_bit29.Q net55 net65 net8 net92 Inst_LUT4AB_ConfigMem.Inst_frame6_bit28.Q
+ _1066_ VPWR VGND sg13g2_mux4_1
XFILLER_52_369 VPWR VGND sg13g2_fill_1
X_1998_ _0556_ _0561_ Inst_LUT4AB_ConfigMem.Inst_frame8_bit13.Q _0646_ VPWR VGND sg13g2_mux2_1