*SPEF "ieee 1481-1999"
*DESIGN "S_term_single2"
*DATE "08:54:06 Monday February 24, 2025"
*VENDOR "The OpenROAD Project"
*PROGRAM "OpenROAD"
*VERSION "87af90f72f3f9be1fdfa1d886f0dd8d8b8f34694"
*DESIGN_FLOW "NAME_SCOPE LOCAL" "PIN_CAP NONE"
*DIVIDER /
*DELIMITER :
*BUS_DELIMITER []
*T_UNIT 1 NS
*C_UNIT 1 PF
*R_UNIT 1 OHM
*L_UNIT 1 HENRY

*NAME_MAP
*1 FrameData[0]
*2 FrameData[10]
*3 FrameData[11]
*4 FrameData[12]
*5 FrameData[13]
*6 FrameData[14]
*7 FrameData[15]
*8 FrameData[16]
*9 FrameData[17]
*10 FrameData[18]
*11 FrameData[19]
*12 FrameData[1]
*13 FrameData[20]
*14 FrameData[21]
*15 FrameData[22]
*16 FrameData[23]
*17 FrameData[24]
*18 FrameData[25]
*19 FrameData[26]
*20 FrameData[27]
*21 FrameData[28]
*22 FrameData[29]
*23 FrameData[2]
*24 FrameData[30]
*25 FrameData[31]
*26 FrameData[3]
*27 FrameData[4]
*28 FrameData[5]
*29 FrameData[6]
*30 FrameData[7]
*31 FrameData[8]
*32 FrameData[9]
*33 FrameData_O[0]
*34 FrameData_O[10]
*35 FrameData_O[11]
*36 FrameData_O[12]
*37 FrameData_O[13]
*38 FrameData_O[14]
*39 FrameData_O[15]
*40 FrameData_O[16]
*41 FrameData_O[17]
*42 FrameData_O[18]
*43 FrameData_O[19]
*44 FrameData_O[1]
*45 FrameData_O[20]
*46 FrameData_O[21]
*47 FrameData_O[22]
*48 FrameData_O[23]
*49 FrameData_O[24]
*50 FrameData_O[25]
*51 FrameData_O[26]
*52 FrameData_O[27]
*53 FrameData_O[28]
*54 FrameData_O[29]
*55 FrameData_O[2]
*56 FrameData_O[30]
*57 FrameData_O[31]
*58 FrameData_O[3]
*59 FrameData_O[4]
*60 FrameData_O[5]
*61 FrameData_O[6]
*62 FrameData_O[7]
*63 FrameData_O[8]
*64 FrameData_O[9]
*65 FrameStrobe[0]
*66 FrameStrobe[10]
*67 FrameStrobe[11]
*68 FrameStrobe[12]
*69 FrameStrobe[13]
*70 FrameStrobe[14]
*71 FrameStrobe[15]
*72 FrameStrobe[16]
*73 FrameStrobe[17]
*74 FrameStrobe[18]
*75 FrameStrobe[19]
*76 FrameStrobe[1]
*77 FrameStrobe[2]
*78 FrameStrobe[3]
*79 FrameStrobe[4]
*80 FrameStrobe[5]
*81 FrameStrobe[6]
*82 FrameStrobe[7]
*83 FrameStrobe[8]
*84 FrameStrobe[9]
*85 FrameStrobe_O[0]
*86 FrameStrobe_O[10]
*87 FrameStrobe_O[11]
*88 FrameStrobe_O[12]
*89 FrameStrobe_O[13]
*90 FrameStrobe_O[14]
*91 FrameStrobe_O[15]
*92 FrameStrobe_O[16]
*93 FrameStrobe_O[17]
*94 FrameStrobe_O[18]
*95 FrameStrobe_O[19]
*96 FrameStrobe_O[1]
*97 FrameStrobe_O[2]
*98 FrameStrobe_O[3]
*99 FrameStrobe_O[4]
*100 FrameStrobe_O[5]
*101 FrameStrobe_O[6]
*102 FrameStrobe_O[7]
*103 FrameStrobe_O[8]
*104 FrameStrobe_O[9]
*105 N1BEG[0]
*106 N1BEG[1]
*107 N1BEG[2]
*108 N1BEG[3]
*109 N2BEG[0]
*110 N2BEG[1]
*111 N2BEG[2]
*112 N2BEG[3]
*113 N2BEG[4]
*114 N2BEG[5]
*115 N2BEG[6]
*116 N2BEG[7]
*117 N2BEGb[0]
*118 N2BEGb[1]
*119 N2BEGb[2]
*120 N2BEGb[3]
*121 N2BEGb[4]
*122 N2BEGb[5]
*123 N2BEGb[6]
*124 N2BEGb[7]
*125 N4BEG[0]
*126 N4BEG[10]
*127 N4BEG[11]
*128 N4BEG[12]
*129 N4BEG[13]
*130 N4BEG[14]
*131 N4BEG[15]
*132 N4BEG[1]
*133 N4BEG[2]
*134 N4BEG[3]
*135 N4BEG[4]
*136 N4BEG[5]
*137 N4BEG[6]
*138 N4BEG[7]
*139 N4BEG[8]
*140 N4BEG[9]
*141 NN4BEG[0]
*142 NN4BEG[10]
*143 NN4BEG[11]
*144 NN4BEG[12]
*145 NN4BEG[13]
*146 NN4BEG[14]
*147 NN4BEG[15]
*148 NN4BEG[1]
*149 NN4BEG[2]
*150 NN4BEG[3]
*151 NN4BEG[4]
*152 NN4BEG[5]
*153 NN4BEG[6]
*154 NN4BEG[7]
*155 NN4BEG[8]
*156 NN4BEG[9]
*157 S1END[0]
*158 S1END[1]
*159 S1END[2]
*160 S1END[3]
*161 S2END[0]
*162 S2END[1]
*163 S2END[2]
*164 S2END[3]
*165 S2END[4]
*166 S2END[5]
*167 S2END[6]
*168 S2END[7]
*169 S2MID[0]
*170 S2MID[1]
*171 S2MID[2]
*172 S2MID[3]
*173 S2MID[4]
*174 S2MID[5]
*175 S2MID[6]
*176 S2MID[7]
*177 S4END[0]
*178 S4END[10]
*179 S4END[11]
*180 S4END[12]
*181 S4END[13]
*182 S4END[14]
*183 S4END[15]
*184 S4END[1]
*185 S4END[2]
*186 S4END[3]
*187 S4END[4]
*188 S4END[5]
*189 S4END[6]
*190 S4END[7]
*191 S4END[8]
*192 S4END[9]
*193 SS4END[0]
*194 SS4END[10]
*195 SS4END[11]
*196 SS4END[12]
*197 SS4END[13]
*198 SS4END[14]
*199 SS4END[15]
*200 SS4END[1]
*201 SS4END[2]
*202 SS4END[3]
*203 SS4END[4]
*204 SS4END[5]
*205 SS4END[6]
*206 SS4END[7]
*207 SS4END[8]
*208 SS4END[9]
*209 UserCLK
*210 UserCLKo
*213 net1
*214 net10
*215 net100
*216 net101
*217 net102
*218 net103
*219 net104
*220 net105
*221 net11
*222 net12
*223 net13
*224 net14
*225 net15
*226 net16
*227 net17
*228 net18
*229 net19
*230 net2
*231 net20
*232 net21
*233 net22
*234 net23
*235 net24
*236 net25
*237 net26
*238 net27
*239 net28
*240 net29
*241 net3
*242 net30
*243 net31
*244 net32
*245 net33
*246 net34
*247 net35
*248 net36
*249 net37
*250 net38
*251 net39
*252 net4
*253 net40
*254 net41
*255 net42
*256 net43
*257 net44
*258 net45
*259 net46
*260 net47
*261 net48
*262 net49
*263 net5
*264 net50
*265 net51
*266 net52
*267 net53
*268 net54
*269 net55
*270 net56
*271 net57
*272 net58
*273 net59
*274 net6
*275 net60
*276 net61
*277 net62
*278 net63
*279 net64
*280 net65
*281 net66
*282 net67
*283 net68
*284 net69
*285 net7
*286 net70
*287 net71
*288 net72
*289 net73
*290 net74
*291 net75
*292 net76
*293 net77
*294 net78
*295 net79
*296 net8
*297 net80
*298 net81
*299 net82
*300 net83
*301 net84
*302 net85
*303 net86
*304 net87
*305 net88
*306 net89
*307 net9
*308 net90
*309 net91
*310 net92
*311 net93
*312 net94
*313 net95
*314 net96
*315 net97
*316 net98
*317 net99
*318 ANTENNA_1
*319 ANTENNA_10
*320 ANTENNA_11
*321 ANTENNA_12
*322 ANTENNA_13
*323 ANTENNA_14
*324 ANTENNA_15
*325 ANTENNA_16
*326 ANTENNA_17
*327 ANTENNA_18
*328 ANTENNA_19
*329 ANTENNA_2
*330 ANTENNA_20
*331 ANTENNA_21
*332 ANTENNA_22
*333 ANTENNA_23
*334 ANTENNA_24
*335 ANTENNA_25
*336 ANTENNA_26
*337 ANTENNA_27
*338 ANTENNA_28
*339 ANTENNA_29
*340 ANTENNA_3
*341 ANTENNA_30
*342 ANTENNA_31
*343 ANTENNA_32
*344 ANTENNA_33
*345 ANTENNA_34
*346 ANTENNA_35
*347 ANTENNA_4
*348 ANTENNA_5
*349 ANTENNA_6
*350 ANTENNA_7
*351 ANTENNA_8
*352 ANTENNA_9
*353 FILLER_0_109
*354 FILLER_0_113
*355 FILLER_0_125
*356 FILLER_0_137
*357 FILLER_0_141
*358 FILLER_0_15
*359 FILLER_0_153
*360 FILLER_0_165
*361 FILLER_0_169
*362 FILLER_0_181
*363 FILLER_0_193
*364 FILLER_0_197
*365 FILLER_0_209
*366 FILLER_0_221
*367 FILLER_0_225
*368 FILLER_0_237
*369 FILLER_0_249
*370 FILLER_0_253
*371 FILLER_0_265
*372 FILLER_0_27
*373 FILLER_0_277
*374 FILLER_0_281
*375 FILLER_0_29
*376 FILLER_0_293
*377 FILLER_0_3
*378 FILLER_0_305
*379 FILLER_0_309
*380 FILLER_0_321
*381 FILLER_0_333
*382 FILLER_0_337
*383 FILLER_0_349
*384 FILLER_0_361
*385 FILLER_0_365
*386 FILLER_0_377
*387 FILLER_0_389
*388 FILLER_0_393
*389 FILLER_0_405
*390 FILLER_0_41
*391 FILLER_0_417
*392 FILLER_0_421
*393 FILLER_0_433
*394 FILLER_0_445
*395 FILLER_0_449
*396 FILLER_0_461
*397 FILLER_0_473
*398 FILLER_0_477
*399 FILLER_0_483
*400 FILLER_0_53
*401 FILLER_0_57
*402 FILLER_0_69
*403 FILLER_0_81
*404 FILLER_0_85
*405 FILLER_0_97
*406 FILLER_10_102
*407 FILLER_10_112
*408 FILLER_10_125
*409 FILLER_10_131
*410 FILLER_10_141
*411 FILLER_10_149
*412 FILLER_10_15
*413 FILLER_10_161
*414 FILLER_10_169
*415 FILLER_10_178
*416 FILLER_10_184
*417 FILLER_10_194
*418 FILLER_10_202
*419 FILLER_10_210
*420 FILLER_10_225
*421 FILLER_10_237
*422 FILLER_10_249
*423 FILLER_10_253
*424 FILLER_10_265
*425 FILLER_10_27
*426 FILLER_10_274
*427 FILLER_10_285
*428 FILLER_10_29
*429 FILLER_10_293
*430 FILLER_10_298
*431 FILLER_10_3
*432 FILLER_10_306
*433 FILLER_10_315
*434 FILLER_10_324
*435 FILLER_10_336
*436 FILLER_10_34
*437 FILLER_10_348
*438 FILLER_10_363
*439 FILLER_10_365
*440 FILLER_10_377
*441 FILLER_10_385
*442 FILLER_10_391
*443 FILLER_10_403
*444 FILLER_10_415
*445 FILLER_10_42
*446 FILLER_10_421
*447 FILLER_10_427
*448 FILLER_10_431
*449 FILLER_10_439
*450 FILLER_10_445
*451 FILLER_10_457
*452 FILLER_10_469
*453 FILLER_10_47
*454 FILLER_10_475
*455 FILLER_10_477
*456 FILLER_10_502
*457 FILLER_10_55
*458 FILLER_10_62
*459 FILLER_10_74
*460 FILLER_10_8
*461 FILLER_10_82
*462 FILLER_10_85
*463 FILLER_10_90
*464 FILLER_11_113
*465 FILLER_11_141
*466 FILLER_11_169
*467 FILLER_11_197
*468 FILLER_11_216
*469 FILLER_11_225
*470 FILLER_11_237
*471 FILLER_11_249
*472 FILLER_11_253
*473 FILLER_11_265
*474 FILLER_11_277
*475 FILLER_11_281
*476 FILLER_11_29
*477 FILLER_11_293
*478 FILLER_11_3
*479 FILLER_11_305
*480 FILLER_11_309
*481 FILLER_11_321
*482 FILLER_11_333
*483 FILLER_11_337
*484 FILLER_11_349
*485 FILLER_11_361
*486 FILLER_11_365
*487 FILLER_11_377
*488 FILLER_11_389
*489 FILLER_11_393
*490 FILLER_11_405
*491 FILLER_11_417
*492 FILLER_11_421
*493 FILLER_11_425
*494 FILLER_11_446
*495 FILLER_11_473
*496 FILLER_11_501
*497 FILLER_11_57
*498 FILLER_11_85
*499 FILLER_1_104
*500 FILLER_1_109
*501 FILLER_1_113
*502 FILLER_1_133
*503 FILLER_1_145
*504 FILLER_1_15
*505 FILLER_1_157
*506 FILLER_1_162
*507 FILLER_1_173
*508 FILLER_1_179
*509 FILLER_1_186
*510 FILLER_1_190
*511 FILLER_1_194
*512 FILLER_1_211
*513 FILLER_1_218
*514 FILLER_1_225
*515 FILLER_1_229
*516 FILLER_1_240
*517 FILLER_1_252
*518 FILLER_1_260
*519 FILLER_1_266
*520 FILLER_1_27
*521 FILLER_1_278
*522 FILLER_1_281
*523 FILLER_1_290
*524 FILLER_1_3
*525 FILLER_1_302
*526 FILLER_1_309
*527 FILLER_1_321
*528 FILLER_1_333
*529 FILLER_1_337
*530 FILLER_1_349
*531 FILLER_1_361
*532 FILLER_1_373
*533 FILLER_1_39
*534 FILLER_1_390
*535 FILLER_1_398
*536 FILLER_1_406
*537 FILLER_1_411
*538 FILLER_1_420
*539 FILLER_1_429
*540 FILLER_1_441
*541 FILLER_1_447
*542 FILLER_1_449
*543 FILLER_1_455
*544 FILLER_1_459
*545 FILLER_1_463
*546 FILLER_1_467
*547 FILLER_1_479
*548 FILLER_1_491
*549 FILLER_1_495
*550 FILLER_1_51
*551 FILLER_1_55
*552 FILLER_1_57
*553 FILLER_1_69
*554 FILLER_1_75
*555 FILLER_1_86
*556 FILLER_1_98
*557 FILLER_2_109
*558 FILLER_2_121
*559 FILLER_2_133
*560 FILLER_2_139
*561 FILLER_2_144
*562 FILLER_2_15
*563 FILLER_2_156
*564 FILLER_2_168
*565 FILLER_2_180
*566 FILLER_2_192
*567 FILLER_2_197
*568 FILLER_2_208
*569 FILLER_2_220
*570 FILLER_2_232
*571 FILLER_2_244
*572 FILLER_2_253
*573 FILLER_2_258
*574 FILLER_2_264
*575 FILLER_2_27
*576 FILLER_2_276
*577 FILLER_2_288
*578 FILLER_2_29
*579 FILLER_2_3
*580 FILLER_2_300
*581 FILLER_2_309
*582 FILLER_2_321
*583 FILLER_2_333
*584 FILLER_2_345
*585 FILLER_2_357
*586 FILLER_2_363
*587 FILLER_2_365
*588 FILLER_2_377
*589 FILLER_2_389
*590 FILLER_2_401
*591 FILLER_2_41
*592 FILLER_2_413
*593 FILLER_2_419
*594 FILLER_2_421
*595 FILLER_2_433
*596 FILLER_2_445
*597 FILLER_2_457
*598 FILLER_2_469
*599 FILLER_2_475
*600 FILLER_2_477
*601 FILLER_2_489
*602 FILLER_2_53
*603 FILLER_2_65
*604 FILLER_2_77
*605 FILLER_2_83
*606 FILLER_2_85
*607 FILLER_2_97
*608 FILLER_3_105
*609 FILLER_3_111
*610 FILLER_3_113
*611 FILLER_3_121
*612 FILLER_3_127
*613 FILLER_3_139
*614 FILLER_3_15
*615 FILLER_3_151
*616 FILLER_3_157
*617 FILLER_3_161
*618 FILLER_3_167
*619 FILLER_3_172
*620 FILLER_3_180
*621 FILLER_3_189
*622 FILLER_3_201
*623 FILLER_3_213
*624 FILLER_3_221
*625 FILLER_3_225
*626 FILLER_3_238
*627 FILLER_3_250
*628 FILLER_3_262
*629 FILLER_3_27
*630 FILLER_3_274
*631 FILLER_3_281
*632 FILLER_3_293
*633 FILLER_3_3
*634 FILLER_3_305
*635 FILLER_3_317
*636 FILLER_3_329
*637 FILLER_3_335
*638 FILLER_3_337
*639 FILLER_3_349
*640 FILLER_3_361
*641 FILLER_3_373
*642 FILLER_3_385
*643 FILLER_3_39
*644 FILLER_3_391
*645 FILLER_3_393
*646 FILLER_3_405
*647 FILLER_3_417
*648 FILLER_3_429
*649 FILLER_3_441
*650 FILLER_3_447
*651 FILLER_3_449
*652 FILLER_3_461
*653 FILLER_3_473
*654 FILLER_3_485
*655 FILLER_3_493
*656 FILLER_3_51
*657 FILLER_3_55
*658 FILLER_3_57
*659 FILLER_3_69
*660 FILLER_3_81
*661 FILLER_3_93
*662 FILLER_4_109
*663 FILLER_4_121
*664 FILLER_4_133
*665 FILLER_4_139
*666 FILLER_4_141
*667 FILLER_4_15
*668 FILLER_4_153
*669 FILLER_4_165
*670 FILLER_4_177
*671 FILLER_4_183
*672 FILLER_4_187
*673 FILLER_4_195
*674 FILLER_4_197
*675 FILLER_4_205
*676 FILLER_4_211
*677 FILLER_4_217
*678 FILLER_4_222
*679 FILLER_4_234
*680 FILLER_4_245
*681 FILLER_4_251
*682 FILLER_4_253
*683 FILLER_4_257
*684 FILLER_4_263
*685 FILLER_4_27
*686 FILLER_4_275
*687 FILLER_4_287
*688 FILLER_4_29
*689 FILLER_4_299
*690 FILLER_4_3
*691 FILLER_4_307
*692 FILLER_4_309
*693 FILLER_4_321
*694 FILLER_4_333
*695 FILLER_4_345
*696 FILLER_4_357
*697 FILLER_4_363
*698 FILLER_4_365
*699 FILLER_4_377
*700 FILLER_4_389
*701 FILLER_4_401
*702 FILLER_4_41
*703 FILLER_4_413
*704 FILLER_4_419
*705 FILLER_4_421
*706 FILLER_4_433
*707 FILLER_4_445
*708 FILLER_4_457
*709 FILLER_4_469
*710 FILLER_4_475
*711 FILLER_4_477
*712 FILLER_4_489
*713 FILLER_4_53
*714 FILLER_4_65
*715 FILLER_4_77
*716 FILLER_4_83
*717 FILLER_4_85
*718 FILLER_4_97
*719 FILLER_5_103
*720 FILLER_5_111
*721 FILLER_5_113
*722 FILLER_5_125
*723 FILLER_5_137
*724 FILLER_5_149
*725 FILLER_5_15
*726 FILLER_5_161
*727 FILLER_5_167
*728 FILLER_5_169
*729 FILLER_5_181
*730 FILLER_5_193
*731 FILLER_5_205
*732 FILLER_5_217
*733 FILLER_5_223
*734 FILLER_5_228
*735 FILLER_5_240
*736 FILLER_5_244
*737 FILLER_5_248
*738 FILLER_5_260
*739 FILLER_5_27
*740 FILLER_5_272
*741 FILLER_5_281
*742 FILLER_5_293
*743 FILLER_5_3
*744 FILLER_5_305
*745 FILLER_5_317
*746 FILLER_5_329
*747 FILLER_5_335
*748 FILLER_5_337
*749 FILLER_5_349
*750 FILLER_5_361
*751 FILLER_5_373
*752 FILLER_5_385
*753 FILLER_5_39
*754 FILLER_5_391
*755 FILLER_5_393
*756 FILLER_5_400
*757 FILLER_5_412
*758 FILLER_5_424
*759 FILLER_5_436
*760 FILLER_5_449
*761 FILLER_5_461
*762 FILLER_5_473
*763 FILLER_5_485
*764 FILLER_5_493
*765 FILLER_5_51
*766 FILLER_5_55
*767 FILLER_5_57
*768 FILLER_5_69
*769 FILLER_5_81
*770 FILLER_5_91
*771 FILLER_6_109
*772 FILLER_6_121
*773 FILLER_6_133
*774 FILLER_6_139
*775 FILLER_6_141
*776 FILLER_6_15
*777 FILLER_6_151
*778 FILLER_6_163
*779 FILLER_6_175
*780 FILLER_6_183
*781 FILLER_6_195
*782 FILLER_6_197
*783 FILLER_6_209
*784 FILLER_6_221
*785 FILLER_6_229
*786 FILLER_6_235
*787 FILLER_6_247
*788 FILLER_6_251
*789 FILLER_6_253
*790 FILLER_6_265
*791 FILLER_6_27
*792 FILLER_6_277
*793 FILLER_6_289
*794 FILLER_6_29
*795 FILLER_6_3
*796 FILLER_6_304
*797 FILLER_6_309
*798 FILLER_6_315
*799 FILLER_6_319
*800 FILLER_6_327
*801 FILLER_6_333
*802 FILLER_6_345
*803 FILLER_6_357
*804 FILLER_6_363
*805 FILLER_6_365
*806 FILLER_6_377
*807 FILLER_6_389
*808 FILLER_6_401
*809 FILLER_6_409
*810 FILLER_6_41
*811 FILLER_6_414
*812 FILLER_6_421
*813 FILLER_6_433
*814 FILLER_6_445
*815 FILLER_6_457
*816 FILLER_6_469
*817 FILLER_6_475
*818 FILLER_6_477
*819 FILLER_6_489
*820 FILLER_6_53
*821 FILLER_6_65
*822 FILLER_6_77
*823 FILLER_6_83
*824 FILLER_6_85
*825 FILLER_6_97
*826 FILLER_7_105
*827 FILLER_7_111
*828 FILLER_7_113
*829 FILLER_7_125
*830 FILLER_7_137
*831 FILLER_7_149
*832 FILLER_7_15
*833 FILLER_7_161
*834 FILLER_7_167
*835 FILLER_7_169
*836 FILLER_7_181
*837 FILLER_7_193
*838 FILLER_7_205
*839 FILLER_7_217
*840 FILLER_7_223
*841 FILLER_7_225
*842 FILLER_7_237
*843 FILLER_7_249
*844 FILLER_7_253
*845 FILLER_7_257
*846 FILLER_7_27
*847 FILLER_7_271
*848 FILLER_7_276
*849 FILLER_7_281
*850 FILLER_7_293
*851 FILLER_7_3
*852 FILLER_7_305
*853 FILLER_7_317
*854 FILLER_7_329
*855 FILLER_7_335
*856 FILLER_7_337
*857 FILLER_7_345
*858 FILLER_7_349
*859 FILLER_7_361
*860 FILLER_7_373
*861 FILLER_7_385
*862 FILLER_7_39
*863 FILLER_7_391
*864 FILLER_7_393
*865 FILLER_7_405
*866 FILLER_7_417
*867 FILLER_7_422
*868 FILLER_7_434
*869 FILLER_7_446
*870 FILLER_7_449
*871 FILLER_7_461
*872 FILLER_7_473
*873 FILLER_7_485
*874 FILLER_7_491
*875 FILLER_7_51
*876 FILLER_7_55
*877 FILLER_7_57
*878 FILLER_7_69
*879 FILLER_7_81
*880 FILLER_7_93
*881 FILLER_8_109
*882 FILLER_8_121
*883 FILLER_8_133
*884 FILLER_8_139
*885 FILLER_8_141
*886 FILLER_8_15
*887 FILLER_8_153
*888 FILLER_8_160
*889 FILLER_8_168
*890 FILLER_8_180
*891 FILLER_8_192
*892 FILLER_8_197
*893 FILLER_8_209
*894 FILLER_8_221
*895 FILLER_8_233
*896 FILLER_8_241
*897 FILLER_8_246
*898 FILLER_8_253
*899 FILLER_8_265
*900 FILLER_8_27
*901 FILLER_8_277
*902 FILLER_8_289
*903 FILLER_8_29
*904 FILLER_8_3
*905 FILLER_8_301
*906 FILLER_8_309
*907 FILLER_8_321
*908 FILLER_8_333
*909 FILLER_8_342
*910 FILLER_8_354
*911 FILLER_8_362
*912 FILLER_8_365
*913 FILLER_8_371
*914 FILLER_8_375
*915 FILLER_8_387
*916 FILLER_8_399
*917 FILLER_8_41
*918 FILLER_8_411
*919 FILLER_8_419
*920 FILLER_8_421
*921 FILLER_8_433
*922 FILLER_8_445
*923 FILLER_8_457
*924 FILLER_8_469
*925 FILLER_8_475
*926 FILLER_8_477
*927 FILLER_8_483
*928 FILLER_8_53
*929 FILLER_8_65
*930 FILLER_8_77
*931 FILLER_8_83
*932 FILLER_8_85
*933 FILLER_8_97
*934 FILLER_9_111
*935 FILLER_9_113
*936 FILLER_9_125
*937 FILLER_9_137
*938 FILLER_9_148
*939 FILLER_9_15
*940 FILLER_9_153
*941 FILLER_9_162
*942 FILLER_9_169
*943 FILLER_9_173
*944 FILLER_9_177
*945 FILLER_9_189
*946 FILLER_9_201
*947 FILLER_9_213
*948 FILLER_9_221
*949 FILLER_9_228
*950 FILLER_9_240
*951 FILLER_9_252
*952 FILLER_9_264
*953 FILLER_9_27
*954 FILLER_9_272
*955 FILLER_9_278
*956 FILLER_9_281
*957 FILLER_9_293
*958 FILLER_9_3
*959 FILLER_9_305
*960 FILLER_9_317
*961 FILLER_9_329
*962 FILLER_9_335
*963 FILLER_9_337
*964 FILLER_9_349
*965 FILLER_9_353
*966 FILLER_9_365
*967 FILLER_9_377
*968 FILLER_9_389
*969 FILLER_9_39
*970 FILLER_9_393
*971 FILLER_9_405
*972 FILLER_9_417
*973 FILLER_9_429
*974 FILLER_9_437
*975 FILLER_9_445
*976 FILLER_9_449
*977 FILLER_9_453
*978 FILLER_9_462
*979 FILLER_9_473
*980 FILLER_9_477
*981 FILLER_9_51
*982 FILLER_9_55
*983 FILLER_9_57
*984 FILLER_9_69
*985 FILLER_9_75
*986 FILLER_9_87
*987 FILLER_9_99
*988 PHY_EDGE_ROW_0_Left_12
*989 PHY_EDGE_ROW_0_Right_0
*990 PHY_EDGE_ROW_10_Left_22
*991 PHY_EDGE_ROW_10_Right_10
*992 PHY_EDGE_ROW_11_Left_23
*993 PHY_EDGE_ROW_11_Right_11
*994 PHY_EDGE_ROW_1_Left_13
*995 PHY_EDGE_ROW_1_Right_1
*996 PHY_EDGE_ROW_2_Left_14
*997 PHY_EDGE_ROW_2_Right_2
*998 PHY_EDGE_ROW_3_Left_15
*999 PHY_EDGE_ROW_3_Right_3
*1000 PHY_EDGE_ROW_4_Left_16
*1001 PHY_EDGE_ROW_4_Right_4
*1002 PHY_EDGE_ROW_5_Left_17
*1003 PHY_EDGE_ROW_5_Right_5
*1004 PHY_EDGE_ROW_6_Left_18
*1005 PHY_EDGE_ROW_6_Right_6
*1006 PHY_EDGE_ROW_7_Left_19
*1007 PHY_EDGE_ROW_7_Right_7
*1008 PHY_EDGE_ROW_8_Left_20
*1009 PHY_EDGE_ROW_8_Right_8
*1010 PHY_EDGE_ROW_9_Left_21
*1011 PHY_EDGE_ROW_9_Right_9
*1012 TAP_TAPCELL_ROW_0_24
*1013 TAP_TAPCELL_ROW_0_25
*1014 TAP_TAPCELL_ROW_0_26
*1015 TAP_TAPCELL_ROW_0_27
*1016 TAP_TAPCELL_ROW_0_28
*1017 TAP_TAPCELL_ROW_0_29
*1018 TAP_TAPCELL_ROW_0_30
*1019 TAP_TAPCELL_ROW_0_31
*1020 TAP_TAPCELL_ROW_0_32
*1021 TAP_TAPCELL_ROW_0_33
*1022 TAP_TAPCELL_ROW_0_34
*1023 TAP_TAPCELL_ROW_0_35
*1024 TAP_TAPCELL_ROW_0_36
*1025 TAP_TAPCELL_ROW_0_37
*1026 TAP_TAPCELL_ROW_0_38
*1027 TAP_TAPCELL_ROW_0_39
*1028 TAP_TAPCELL_ROW_0_40
*1029 TAP_TAPCELL_ROW_0_41
*1030 TAP_TAPCELL_ROW_10_123
*1031 TAP_TAPCELL_ROW_10_124
*1032 TAP_TAPCELL_ROW_10_125
*1033 TAP_TAPCELL_ROW_10_126
*1034 TAP_TAPCELL_ROW_10_127
*1035 TAP_TAPCELL_ROW_10_128
*1036 TAP_TAPCELL_ROW_10_129
*1037 TAP_TAPCELL_ROW_10_130
*1038 TAP_TAPCELL_ROW_10_131
*1039 TAP_TAPCELL_ROW_11_132
*1040 TAP_TAPCELL_ROW_11_133
*1041 TAP_TAPCELL_ROW_11_134
*1042 TAP_TAPCELL_ROW_11_135
*1043 TAP_TAPCELL_ROW_11_136
*1044 TAP_TAPCELL_ROW_11_137
*1045 TAP_TAPCELL_ROW_11_138
*1046 TAP_TAPCELL_ROW_11_139
*1047 TAP_TAPCELL_ROW_11_140
*1048 TAP_TAPCELL_ROW_11_141
*1049 TAP_TAPCELL_ROW_11_142
*1050 TAP_TAPCELL_ROW_11_143
*1051 TAP_TAPCELL_ROW_11_144
*1052 TAP_TAPCELL_ROW_11_145
*1053 TAP_TAPCELL_ROW_11_146
*1054 TAP_TAPCELL_ROW_11_147
*1055 TAP_TAPCELL_ROW_11_148
*1056 TAP_TAPCELL_ROW_11_149
*1057 TAP_TAPCELL_ROW_1_42
*1058 TAP_TAPCELL_ROW_1_43
*1059 TAP_TAPCELL_ROW_1_44
*1060 TAP_TAPCELL_ROW_1_45
*1061 TAP_TAPCELL_ROW_1_46
*1062 TAP_TAPCELL_ROW_1_47
*1063 TAP_TAPCELL_ROW_1_48
*1064 TAP_TAPCELL_ROW_1_49
*1065 TAP_TAPCELL_ROW_1_50
*1066 TAP_TAPCELL_ROW_2_51
*1067 TAP_TAPCELL_ROW_2_52
*1068 TAP_TAPCELL_ROW_2_53
*1069 TAP_TAPCELL_ROW_2_54
*1070 TAP_TAPCELL_ROW_2_55
*1071 TAP_TAPCELL_ROW_2_56
*1072 TAP_TAPCELL_ROW_2_57
*1073 TAP_TAPCELL_ROW_2_58
*1074 TAP_TAPCELL_ROW_2_59
*1075 TAP_TAPCELL_ROW_3_60
*1076 TAP_TAPCELL_ROW_3_61
*1077 TAP_TAPCELL_ROW_3_62
*1078 TAP_TAPCELL_ROW_3_63
*1079 TAP_TAPCELL_ROW_3_64
*1080 TAP_TAPCELL_ROW_3_65
*1081 TAP_TAPCELL_ROW_3_66
*1082 TAP_TAPCELL_ROW_3_67
*1083 TAP_TAPCELL_ROW_3_68
*1084 TAP_TAPCELL_ROW_4_69
*1085 TAP_TAPCELL_ROW_4_70
*1086 TAP_TAPCELL_ROW_4_71
*1087 TAP_TAPCELL_ROW_4_72
*1088 TAP_TAPCELL_ROW_4_73
*1089 TAP_TAPCELL_ROW_4_74
*1090 TAP_TAPCELL_ROW_4_75
*1091 TAP_TAPCELL_ROW_4_76
*1092 TAP_TAPCELL_ROW_4_77
*1093 TAP_TAPCELL_ROW_5_78
*1094 TAP_TAPCELL_ROW_5_79
*1095 TAP_TAPCELL_ROW_5_80
*1096 TAP_TAPCELL_ROW_5_81
*1097 TAP_TAPCELL_ROW_5_82
*1098 TAP_TAPCELL_ROW_5_83
*1099 TAP_TAPCELL_ROW_5_84
*1100 TAP_TAPCELL_ROW_5_85
*1101 TAP_TAPCELL_ROW_5_86
*1102 TAP_TAPCELL_ROW_6_87
*1103 TAP_TAPCELL_ROW_6_88
*1104 TAP_TAPCELL_ROW_6_89
*1105 TAP_TAPCELL_ROW_6_90
*1106 TAP_TAPCELL_ROW_6_91
*1107 TAP_TAPCELL_ROW_6_92
*1108 TAP_TAPCELL_ROW_6_93
*1109 TAP_TAPCELL_ROW_6_94
*1110 TAP_TAPCELL_ROW_6_95
*1111 TAP_TAPCELL_ROW_7_100
*1112 TAP_TAPCELL_ROW_7_101
*1113 TAP_TAPCELL_ROW_7_102
*1114 TAP_TAPCELL_ROW_7_103
*1115 TAP_TAPCELL_ROW_7_104
*1116 TAP_TAPCELL_ROW_7_96
*1117 TAP_TAPCELL_ROW_7_97
*1118 TAP_TAPCELL_ROW_7_98
*1119 TAP_TAPCELL_ROW_7_99
*1120 TAP_TAPCELL_ROW_8_105
*1121 TAP_TAPCELL_ROW_8_106
*1122 TAP_TAPCELL_ROW_8_107
*1123 TAP_TAPCELL_ROW_8_108
*1124 TAP_TAPCELL_ROW_8_109
*1125 TAP_TAPCELL_ROW_8_110
*1126 TAP_TAPCELL_ROW_8_111
*1127 TAP_TAPCELL_ROW_8_112
*1128 TAP_TAPCELL_ROW_8_113
*1129 TAP_TAPCELL_ROW_9_114
*1130 TAP_TAPCELL_ROW_9_115
*1131 TAP_TAPCELL_ROW_9_116
*1132 TAP_TAPCELL_ROW_9_117
*1133 TAP_TAPCELL_ROW_9_118
*1134 TAP_TAPCELL_ROW_9_119
*1135 TAP_TAPCELL_ROW_9_120
*1136 TAP_TAPCELL_ROW_9_121
*1137 TAP_TAPCELL_ROW_9_122
*1138 _000_
*1139 _001_
*1140 _002_
*1141 _003_
*1142 _004_
*1143 _005_
*1144 _006_
*1145 _007_
*1146 _008_
*1147 _009_
*1148 _010_
*1149 _011_
*1150 _012_
*1151 _013_
*1152 _014_
*1153 _015_
*1154 _016_
*1155 _017_
*1156 _018_
*1157 _019_
*1158 _020_
*1159 _021_
*1160 _022_
*1161 _023_
*1162 _024_
*1163 _025_
*1164 _026_
*1165 _027_
*1166 _028_
*1167 _029_
*1168 _030_
*1169 _031_
*1170 _032_
*1171 _033_
*1172 _034_
*1173 _035_
*1174 _036_
*1175 _037_
*1176 _038_
*1177 _039_
*1178 _040_
*1179 _041_
*1180 _042_
*1181 _043_
*1182 _044_
*1183 _045_
*1184 _046_
*1185 _047_
*1186 _048_
*1187 _049_
*1188 _050_
*1189 _051_
*1190 _052_
*1191 _053_
*1192 _054_
*1193 _055_
*1194 _056_
*1195 _057_
*1196 _058_
*1197 _059_
*1198 _060_
*1199 _061_
*1200 _062_
*1201 _063_
*1202 _064_
*1203 _065_
*1204 _066_
*1205 _067_
*1206 _068_
*1207 _069_
*1208 _070_
*1209 _071_
*1210 _072_
*1211 _073_
*1212 _074_
*1213 _075_
*1214 _076_
*1215 _077_
*1216 _078_
*1217 _079_
*1218 _080_
*1219 _081_
*1220 _082_
*1221 _083_
*1222 _084_
*1223 _085_
*1224 _086_
*1225 _087_
*1226 _088_
*1227 _089_
*1228 _090_
*1229 _091_
*1230 _092_
*1231 _093_
*1232 _094_
*1233 _095_
*1234 _096_
*1235 _097_
*1236 _098_
*1237 _099_
*1238 _100_
*1239 _101_
*1240 _102_
*1241 _103_
*1242 _104_
*1243 output1
*1244 output10
*1245 output100
*1246 output101
*1247 output102
*1248 output103
*1249 output104
*1250 output105
*1251 output11
*1252 output12
*1253 output13
*1254 output14
*1255 output15
*1256 output16
*1257 output17
*1258 output18
*1259 output19
*1260 output2
*1261 output20
*1262 output21
*1263 output22
*1264 output23
*1265 output24
*1266 output25
*1267 output26
*1268 output27
*1269 output28
*1270 output29
*1271 output3
*1272 output30
*1273 output31
*1274 output32
*1275 output33
*1276 output34
*1277 output35
*1278 output36
*1279 output37
*1280 output38
*1281 output39
*1282 output4
*1283 output40
*1284 output41
*1285 output42
*1286 output43
*1287 output44
*1288 output45
*1289 output46
*1290 output47
*1291 output48
*1292 output49
*1293 output5
*1294 output50
*1295 output51
*1296 output52
*1297 output53
*1298 output54
*1299 output55
*1300 output56
*1301 output57
*1302 output58
*1303 output59
*1304 output6
*1305 output60
*1306 output61
*1307 output62
*1308 output63
*1309 output64
*1310 output65
*1311 output66
*1312 output67
*1313 output68
*1314 output69
*1315 output7
*1316 output70
*1317 output71
*1318 output72
*1319 output73
*1320 output74
*1321 output75
*1322 output76
*1323 output77
*1324 output78
*1325 output79
*1326 output8
*1327 output80
*1328 output81
*1329 output82
*1330 output83
*1331 output84
*1332 output85
*1333 output86
*1334 output87
*1335 output88
*1336 output89
*1337 output9
*1338 output90
*1339 output91
*1340 output92
*1341 output93
*1342 output94
*1343 output95
*1344 output96
*1345 output97
*1346 output98
*1347 output99

*PORTS
FrameData[0] I
FrameData[10] I
FrameData[11] I
FrameData[12] I
FrameData[13] I
FrameData[14] I
FrameData[15] I
FrameData[16] I
FrameData[17] I
FrameData[18] I
FrameData[19] I
FrameData[1] I
FrameData[20] I
FrameData[21] I
FrameData[22] I
FrameData[23] I
FrameData[24] I
FrameData[25] I
FrameData[26] I
FrameData[27] I
FrameData[28] I
FrameData[29] I
FrameData[2] I
FrameData[30] I
FrameData[31] I
FrameData[3] I
FrameData[4] I
FrameData[5] I
FrameData[6] I
FrameData[7] I
FrameData[8] I
FrameData[9] I
FrameData_O[0] O
FrameData_O[10] O
FrameData_O[11] O
FrameData_O[12] O
FrameData_O[13] O
FrameData_O[14] O
FrameData_O[15] O
FrameData_O[16] O
FrameData_O[17] O
FrameData_O[18] O
FrameData_O[19] O
FrameData_O[1] O
FrameData_O[20] O
FrameData_O[21] O
FrameData_O[22] O
FrameData_O[23] O
FrameData_O[24] O
FrameData_O[25] O
FrameData_O[26] O
FrameData_O[27] O
FrameData_O[28] O
FrameData_O[29] O
FrameData_O[2] O
FrameData_O[30] O
FrameData_O[31] O
FrameData_O[3] O
FrameData_O[4] O
FrameData_O[5] O
FrameData_O[6] O
FrameData_O[7] O
FrameData_O[8] O
FrameData_O[9] O
FrameStrobe[0] I
FrameStrobe[10] I
FrameStrobe[11] I
FrameStrobe[12] I
FrameStrobe[13] I
FrameStrobe[14] I
FrameStrobe[15] I
FrameStrobe[16] I
FrameStrobe[17] I
FrameStrobe[18] I
FrameStrobe[19] I
FrameStrobe[1] I
FrameStrobe[2] I
FrameStrobe[3] I
FrameStrobe[4] I
FrameStrobe[5] I
FrameStrobe[6] I
FrameStrobe[7] I
FrameStrobe[8] I
FrameStrobe[9] I
FrameStrobe_O[0] O
FrameStrobe_O[10] O
FrameStrobe_O[11] O
FrameStrobe_O[12] O
FrameStrobe_O[13] O
FrameStrobe_O[14] O
FrameStrobe_O[15] O
FrameStrobe_O[16] O
FrameStrobe_O[17] O
FrameStrobe_O[18] O
FrameStrobe_O[19] O
FrameStrobe_O[1] O
FrameStrobe_O[2] O
FrameStrobe_O[3] O
FrameStrobe_O[4] O
FrameStrobe_O[5] O
FrameStrobe_O[6] O
FrameStrobe_O[7] O
FrameStrobe_O[8] O
FrameStrobe_O[9] O
N1BEG[0] O
N1BEG[1] O
N1BEG[2] O
N1BEG[3] O
N2BEG[0] O
N2BEG[1] O
N2BEG[2] O
N2BEG[3] O
N2BEG[4] O
N2BEG[5] O
N2BEG[6] O
N2BEG[7] O
N2BEGb[0] O
N2BEGb[1] O
N2BEGb[2] O
N2BEGb[3] O
N2BEGb[4] O
N2BEGb[5] O
N2BEGb[6] O
N2BEGb[7] O
N4BEG[0] O
N4BEG[10] O
N4BEG[11] O
N4BEG[12] O
N4BEG[13] O
N4BEG[14] O
N4BEG[15] O
N4BEG[1] O
N4BEG[2] O
N4BEG[3] O
N4BEG[4] O
N4BEG[5] O
N4BEG[6] O
N4BEG[7] O
N4BEG[8] O
N4BEG[9] O
NN4BEG[0] O
NN4BEG[10] O
NN4BEG[11] O
NN4BEG[12] O
NN4BEG[13] O
NN4BEG[14] O
NN4BEG[15] O
NN4BEG[1] O
NN4BEG[2] O
NN4BEG[3] O
NN4BEG[4] O
NN4BEG[5] O
NN4BEG[6] O
NN4BEG[7] O
NN4BEG[8] O
NN4BEG[9] O
S1END[0] I
S1END[1] I
S1END[2] I
S1END[3] I
S2END[0] I
S2END[1] I
S2END[2] I
S2END[3] I
S2END[4] I
S2END[5] I
S2END[6] I
S2END[7] I
S2MID[0] I
S2MID[1] I
S2MID[2] I
S2MID[3] I
S2MID[4] I
S2MID[5] I
S2MID[6] I
S2MID[7] I
S4END[0] I
S4END[10] I
S4END[11] I
S4END[12] I
S4END[13] I
S4END[14] I
S4END[15] I
S4END[1] I
S4END[2] I
S4END[3] I
S4END[4] I
S4END[5] I
S4END[6] I
S4END[7] I
S4END[8] I
S4END[9] I
SS4END[0] I
SS4END[10] I
SS4END[11] I
SS4END[12] I
SS4END[13] I
SS4END[14] I
SS4END[15] I
SS4END[1] I
SS4END[2] I
SS4END[3] I
SS4END[4] I
SS4END[5] I
SS4END[6] I
SS4END[7] I
SS4END[8] I
SS4END[9] I
UserCLK I
UserCLKo O

*D_NET *1 0.00677472
*CONN
*P FrameData[0] I
*I *1138:A I *D sky130_fd_sc_hd__clkbuf_2
*I *318:DIODE I *D sky130_fd_sc_hd__diode_2
*CAP
1 FrameData[0] 0.00289898
2 *1138:A 4.8343e-05
3 *318:DIODE 0.00294732
4 *318:DIODE *325:DIODE 0.000498604
5 *318:DIODE *1139:A 0.000333182
6 *1138:A *1172:A 4.82919e-05
*RES
1 FrameData[0] *318:DIODE 35.8934 
2 *318:DIODE *1138:A 3.995 
*END

*D_NET *2 0.0230816
*CONN
*P FrameData[10] I
*I *1148:A I *D sky130_fd_sc_hd__clkbuf_1
*I *329:DIODE I *D sky130_fd_sc_hd__diode_2
*CAP
1 FrameData[10] 0.00432301
2 *1148:A 9.73191e-06
3 *329:DIODE 0.00433275
4 *329:DIODE *325:DIODE 0.00284584
5 *329:DIODE *328:DIODE 5.78448e-05
6 *329:DIODE *330:DIODE 0.00733537
7 *329:DIODE *340:DIODE 0.000513261
8 *329:DIODE *1194:A 0.000282931
9 *329:DIODE *1195:A 4.56148e-05
10 *329:DIODE *1319:A 0
11 *329:DIODE *3:19 0.00254664
12 *329:DIODE *252:14 0
13 *329:DIODE *276:8 0.000372597
14 *329:DIODE *287:10 0.000275548
15 *329:DIODE *288:16 5.53249e-06
16 *329:DIODE *296:14 3.83561e-05
17 *1148:A *286:18 4.82863e-05
18 *1148:A *301:14 4.82863e-05
*RES
1 FrameData[10] *329:DIODE 29.6181 
2 *329:DIODE *1148:A 3.65 
*END

*D_NET *3 0.0210901
*CONN
*P FrameData[11] I
*I *1149:A I *D sky130_fd_sc_hd__buf_1
*CAP
1 FrameData[11] 0.00209648
2 *1149:A 0.000509859
3 *3:19 0.00260633
4 *1149:A *1245:A 0.000124895
5 *1149:A *1246:A 8.57321e-05
6 *1149:A *285:12 0.00233156
7 *1149:A *300:12 0.000302462
8 *1149:A *305:10 0.00255882
9 *3:19 *338:DIODE 4.99619e-05
10 *3:19 *340:DIODE 0.00261306
11 *3:19 *343:DIODE 4.99619e-05
12 *3:19 *350:DIODE 0.000705289
13 *3:19 *1150:A 0.00266758
14 *3:19 *1245:A 5.50699e-05
15 *3:19 *1328:A 0.000104619
16 *3:19 *1333:A 0.000285445
17 *3:19 *194:17 0.000198939
18 *3:19 *208:17 4.82863e-05
19 *3:19 *273:12 0.000460942
20 *3:19 *300:12 0.000688178
21 *329:DIODE *3:19 0.00254664
*RES
1 FrameData[11] *3:19 31.1032 
2 *3:19 *1149:A 27.925 
*END

*D_NET *4 0.0215537
*CONN
*P FrameData[12] I
*I *1150:A I *D sky130_fd_sc_hd__buf_1
*CAP
1 FrameData[12] 0.00354457
2 *1150:A 0.00354457
3 *1150:A *335:DIODE 0.00219456
4 *1150:A *340:DIODE 0.00119953
5 *1150:A *347:DIODE 0.000856211
6 *1150:A *348:DIODE 0.00111102
7 *1150:A *1151:A 0.0013134
8 *1150:A *1263:A 8.57467e-05
9 *1150:A *1308:A 0
10 *1150:A *1319:A 0.00220794
11 *1150:A *16:23 0.000558025
12 *1150:A *158:15 3.00448e-05
13 *1150:A *195:21 0.00176142
14 *1150:A *224:20 2.02872e-05
15 *1150:A *281:16 0.000458771
16 *3:19 *1150:A 0.00266758
*RES
1 FrameData[12] *1150:A 28.0829 
*END

*D_NET *5 0.019827
*CONN
*P FrameData[13] I
*I *1151:A I *D sky130_fd_sc_hd__buf_1
*CAP
1 FrameData[13] 0.00345295
2 *1151:A 0.00345295
3 *1151:A *335:DIODE 0.000169717
4 *1151:A *340:DIODE 0.000922856
5 *1151:A *347:DIODE 0.00123167
6 *1151:A *348:DIODE 0.00144108
7 *1151:A *349:DIODE 0.000557994
8 *1151:A *1201:A 0.000988878
9 *1151:A *1327:A 0.00302256
10 *1151:A *1328:A 0.00182334
11 *1151:A *1335:A 0.000120232
12 *1151:A *11:15 5.33602e-05