*SPEF "ieee 1481-1999"
*DESIGN "N_term_IHP_SRAM"
*DATE "16:44:55 Thursday April 03, 2025"
*VENDOR "The OpenROAD Project"
*PROGRAM "OpenROAD"
*VERSION "87af90f72f3f9be1fdfa1d886f0dd8d8b8f34694"
*DESIGN_FLOW "NAME_SCOPE LOCAL" "PIN_CAP NONE"
*DIVIDER /
*DELIMITER :
*BUS_DELIMITER []
*T_UNIT 1 NS
*C_UNIT 1 PF
*R_UNIT 1 OHM
*L_UNIT 1 HENRY

*NAME_MAP
*1 FrameData[0]
*2 FrameData[10]
*3 FrameData[11]
*4 FrameData[12]
*5 FrameData[13]
*6 FrameData[14]
*7 FrameData[15]
*8 FrameData[16]
*9 FrameData[17]
*10 FrameData[18]
*11 FrameData[19]
*12 FrameData[1]
*13 FrameData[20]
*14 FrameData[21]
*15 FrameData[22]
*16 FrameData[23]
*17 FrameData[24]
*18 FrameData[25]
*19 FrameData[26]
*20 FrameData[27]
*21 FrameData[28]
*22 FrameData[29]
*23 FrameData[2]
*24 FrameData[30]
*25 FrameData[31]
*26 FrameData[3]
*27 FrameData[4]
*28 FrameData[5]
*29 FrameData[6]
*30 FrameData[7]
*31 FrameData[8]
*32 FrameData[9]
*33 FrameData_O[0]
*34 FrameData_O[10]
*35 FrameData_O[11]
*36 FrameData_O[12]
*37 FrameData_O[13]
*38 FrameData_O[14]
*39 FrameData_O[15]
*40 FrameData_O[16]
*41 FrameData_O[17]
*42 FrameData_O[18]
*43 FrameData_O[19]
*44 FrameData_O[1]
*45 FrameData_O[20]
*46 FrameData_O[21]
*47 FrameData_O[22]
*48 FrameData_O[23]
*49 FrameData_O[24]
*50 FrameData_O[25]
*51 FrameData_O[26]
*52 FrameData_O[27]
*53 FrameData_O[28]
*54 FrameData_O[29]
*55 FrameData_O[2]
*56 FrameData_O[30]
*57 FrameData_O[31]
*58 FrameData_O[3]
*59 FrameData_O[4]
*60 FrameData_O[5]
*61 FrameData_O[6]
*62 FrameData_O[7]
*63 FrameData_O[8]
*64 FrameData_O[9]
*65 FrameStrobe[0]
*66 FrameStrobe[10]
*67 FrameStrobe[11]
*68 FrameStrobe[12]
*69 FrameStrobe[13]
*70 FrameStrobe[14]
*71 FrameStrobe[15]
*72 FrameStrobe[16]
*73 FrameStrobe[17]
*74 FrameStrobe[18]
*75 FrameStrobe[19]
*76 FrameStrobe[1]
*77 FrameStrobe[2]
*78 FrameStrobe[3]
*79 FrameStrobe[4]
*80 FrameStrobe[5]
*81 FrameStrobe[6]
*82 FrameStrobe[7]
*83 FrameStrobe[8]
*84 FrameStrobe[9]
*85 FrameStrobe_O[0]
*86 FrameStrobe_O[10]
*87 FrameStrobe_O[11]
*88 FrameStrobe_O[12]
*89 FrameStrobe_O[13]
*90 FrameStrobe_O[14]
*91 FrameStrobe_O[15]
*92 FrameStrobe_O[16]
*93 FrameStrobe_O[17]
*94 FrameStrobe_O[18]
*95 FrameStrobe_O[19]
*96 FrameStrobe_O[1]
*97 FrameStrobe_O[2]
*98 FrameStrobe_O[3]
*99 FrameStrobe_O[4]
*100 FrameStrobe_O[5]
*101 FrameStrobe_O[6]
*102 FrameStrobe_O[7]
*103 FrameStrobe_O[8]
*104 FrameStrobe_O[9]
*105 N1END[0]
*106 N1END[1]
*107 N1END[2]
*108 N1END[3]
*109 N2END[0]
*110 N2END[1]
*111 N2END[2]
*112 N2END[3]
*113 N2END[4]
*114 N2END[5]
*115 N2END[6]
*116 N2END[7]
*117 N2MID[0]
*118 N2MID[1]
*119 N2MID[2]
*120 N2MID[3]
*121 N2MID[4]
*122 N2MID[5]
*123 N2MID[6]
*124 N2MID[7]
*125 N4END[0]
*126 N4END[10]
*127 N4END[11]
*128 N4END[12]
*129 N4END[13]
*130 N4END[14]
*131 N4END[15]
*132 N4END[1]
*133 N4END[2]
*134 N4END[3]
*135 N4END[4]
*136 N4END[5]
*137 N4END[6]
*138 N4END[7]
*139 N4END[8]
*140 N4END[9]
*141 S1BEG[0]
*142 S1BEG[1]
*143 S1BEG[2]
*144 S1BEG[3]
*145 S2BEG[0]
*146 S2BEG[1]
*147 S2BEG[2]
*148 S2BEG[3]
*149 S2BEG[4]
*150 S2BEG[5]
*151 S2BEG[6]
*152 S2BEG[7]
*153 S2BEGb[0]
*154 S2BEGb[1]
*155 S2BEGb[2]
*156 S2BEGb[3]
*157 S2BEGb[4]
*158 S2BEGb[5]
*159 S2BEGb[6]
*160 S2BEGb[7]
*161 S4BEG[0]
*162 S4BEG[10]
*163 S4BEG[11]
*164 S4BEG[12]
*165 S4BEG[13]
*166 S4BEG[14]
*167 S4BEG[15]
*168 S4BEG[1]
*169 S4BEG[2]
*170 S4BEG[3]
*171 S4BEG[4]
*172 S4BEG[5]
*173 S4BEG[6]
*174 S4BEG[7]
*175 S4BEG[8]
*176 S4BEG[9]
*177 UserCLK
*178 UserCLKo
*181 net1
*182 net10
*183 net11
*184 net12
*185 net13
*186 net14
*187 net15
*188 net16
*189 net17
*190 net18
*191 net19
*192 net2
*193 net20
*194 net21
*195 net22
*196 net23
*197 net24
*198 net25
*199 net26
*200 net27
*201 net28
*202 net29
*203 net3
*204 net30
*205 net31
*206 net32
*207 net33
*208 net34
*209 net35
*210 net36
*211 net37
*212 net38
*213 net39
*214 net4
*215 net40
*216 net41
*217 net42
*218 net43
*219 net44
*220 net45
*221 net46
*222 net47
*223 net48
*224 net49
*225 net5
*226 net50
*227 net51
*228 net52
*229 net53
*230 net54
*231 net55
*232 net56
*233 net57
*234 net58
*235 net59
*236 net6
*237 net60
*238 net61
*239 net62
*240 net63
*241 net64
*242 net65
*243 net66
*244 net67
*245 net68
*246 net69
*247 net7
*248 net70
*249 net71
*250 net72
*251 net73
*252 net74
*253 net75
*254 net76
*255 net77
*256 net78
*257 net79
*258 net8
*259 net80
*260 net81
*261 net82
*262 net83
*263 net84
*264 net85
*265 net86
*266 net87
*267 net88
*268 net89
*269 net9
*270 FILLER_0_0
*271 FILLER_0_14
*272 FILLER_0_165
*273 FILLER_0_172
*274 FILLER_0_176
*275 FILLER_0_21
*276 FILLER_0_28
*277 FILLER_0_35
*278 FILLER_0_42
*279 FILLER_0_49
*280 FILLER_0_56
*281 FILLER_0_63
*282 FILLER_0_7
*283 FILLER_0_70
*284 FILLER_0_72
*285 FILLER_10_0
*286 FILLER_10_100
*287 FILLER_10_109
*288 FILLER_10_11
*289 FILLER_10_116
*290 FILLER_10_123
*291 FILLER_10_130
*292 FILLER_10_139
*293 FILLER_10_141
*294 FILLER_10_146
*295 FILLER_10_153
*296 FILLER_10_157
*297 FILLER_10_16
*298 FILLER_10_162
*299 FILLER_10_169
*300 FILLER_10_174
*301 FILLER_10_196
*302 FILLER_10_23
*303 FILLER_10_30
*304 FILLER_10_37
*305 FILLER_10_44
*306 FILLER_10_51
*307 FILLER_10_58
*308 FILLER_10_65
*309 FILLER_10_7
*310 FILLER_10_72
*311 FILLER_10_79
*312 FILLER_10_86
*313 FILLER_10_93
*314 FILLER_11_103
*315 FILLER_11_107
*316 FILLER_11_113
*317 FILLER_11_117
*318 FILLER_11_123
*319 FILLER_11_127
*320 FILLER_11_13
*321 FILLER_11_133
*322 FILLER_11_137
*323 FILLER_11_143
*324 FILLER_11_147
*325 FILLER_11_153
*326 FILLER_11_157
*327 FILLER_11_163
*328 FILLER_11_167
*329 FILLER_11_17
*330 FILLER_11_173
*331 FILLER_11_183
*332 FILLER_11_23
*333 FILLER_11_27
*334 FILLER_11_33
*335 FILLER_11_37
*336 FILLER_11_4
*337 FILLER_11_43
*338 FILLER_11_47
*339 FILLER_11_53
*340 FILLER_11_57
*341 FILLER_11_63
*342 FILLER_11_67
*343 FILLER_11_73
*344 FILLER_11_77
*345 FILLER_11_8
*346 FILLER_11_83
*347 FILLER_11_87
*348 FILLER_11_93
*349 FILLER_11_97
*350 FILLER_1_0
*351 FILLER_1_105
*352 FILLER_1_112
*353 FILLER_1_147
*354 FILLER_1_156
*355 FILLER_1_17
*356 FILLER_1_172
*357 FILLER_1_179
*358 FILLER_1_183
*359 FILLER_1_196
*360 FILLER_1_24
*361 FILLER_1_31
*362 FILLER_1_38
*363 FILLER_1_45
*364 FILLER_1_52
*365 FILLER_1_59
*366 FILLER_1_66
*367 FILLER_1_7
*368 FILLER_1_73
*369 FILLER_1_80
*370 FILLER_2_0
*371 FILLER_2_103
*372 FILLER_2_11
*373 FILLER_2_110
*374 FILLER_2_117
*375 FILLER_2_124
*376 FILLER_2_131
*377 FILLER_2_138
*378 FILLER_2_145
*379 FILLER_2_153
*380 FILLER_2_160
*381 FILLER_2_162
*382 FILLER_2_167
*383 FILLER_2_17
*384 FILLER_2_174
*385 FILLER_2_181
*386 FILLER_2_24
*387 FILLER_2_31
*388 FILLER_2_38
*389 FILLER_2_45
*390 FILLER_2_49
*391 FILLER_2_54
*392 FILLER_2_61
*393 FILLER_2_68
*394 FILLER_2_7
*395 FILLER_2_75
*396 FILLER_2_82
*397 FILLER_2_89
*398 FILLER_2_96
*399 FILLER_3_0
*400 FILLER_3_102
*401 FILLER_3_106
*402 FILLER_3_116
*403 FILLER_3_123
*404 FILLER_3_131
*405 FILLER_3_133
*406 FILLER_3_142
*407 FILLER_3_149
*408 FILLER_3_15
*409 FILLER_3_160
*410 FILLER_3_167
*411 FILLER_3_171
*412 FILLER_3_176
*413 FILLER_3_183
*414 FILLER_3_185
*415 FILLER_3_194
*416 FILLER_3_196
*417 FILLER_3_22
*418 FILLER_3_24
*419 FILLER_3_29
*420 FILLER_3_36
*421 FILLER_3_43
*422 FILLER_3_50
*423 FILLER_3_56
*424 FILLER_3_63
*425 FILLER_3_7
*426 FILLER_3_70
*427 FILLER_3_77
*428 FILLER_3_84
*429 FILLER_3_91
*430 FILLER_3_93
*431 FILLER_4_0
*432 FILLER_4_100
*433 FILLER_4_107
*434 FILLER_4_114
*435 FILLER_4_121
*436 FILLER_4_128
*437 FILLER_4_135
*438 FILLER_4_14
*439 FILLER_4_142
*440 FILLER_4_149
*441 FILLER_4_156
*442 FILLER_4_163
*443 FILLER_4_169
*444 FILLER_4_176
*445 FILLER_4_180
*446 FILLER_4_194
*447 FILLER_4_196
*448 FILLER_4_21
*449 FILLER_4_28
*450 FILLER_4_35
*451 FILLER_4_43
*452 FILLER_4_50
*453 FILLER_4_57
*454 FILLER_4_64
*455 FILLER_4_7
*456 FILLER_4_71
*457 FILLER_4_86
*458 FILLER_4_93
*459 FILLER_5_0
*460 FILLER_5_106
*461 FILLER_5_113
*462 FILLER_5_12
*463 FILLER_5_120
*464 FILLER_5_127
*465 FILLER_5_134
*466 FILLER_5_141
*467 FILLER_5_148
*468 FILLER_5_150
*469 FILLER_5_155
*470 FILLER_5_162
*471 FILLER_5_168
*472 FILLER_5_17
*473 FILLER_5_175
*474 FILLER_5_179
*475 FILLER_5_188
*476 FILLER_5_24
*477 FILLER_5_31
*478 FILLER_5_35
*479 FILLER_5_40
*480 FILLER_5_47
*481 FILLER_5_54
*482 FILLER_5_61
*483 FILLER_5_68
*484 FILLER_5_7
*485 FILLER_5_75
*486 FILLER_5_79
*487 FILLER_5_85
*488 FILLER_5_92
*489 FILLER_5_99
*490 FILLER_6_0
*491 FILLER_6_103
*492 FILLER_6_110
*493 FILLER_6_117
*494 FILLER_6_125
*495 FILLER_6_13
*496 FILLER_6_132
*497 FILLER_6_136
*498 FILLER_6_142
*499 FILLER_6_149
*500 FILLER_6_156
*501 FILLER_6_160
*502 FILLER_6_169
*503 FILLER_6_176
*504 FILLER_6_183
*505 FILLER_6_187
*506 FILLER_6_192
*507 FILLER_6_20
*508 FILLER_6_28
*509 FILLER_6_35
*510 FILLER_6_46
*511 FILLER_6_50
*512 FILLER_6_56
*513 FILLER_6_63
*514 FILLER_6_7
*515 FILLER_6_70
*516 FILLER_6_77
*517 FILLER_6_79
*518 FILLER_6_84
*519 FILLER_6_89
*520 FILLER_6_96
*521 FILLER_7_0
*522 FILLER_7_100
*523 FILLER_7_107
*524 FILLER_7_114
*525 FILLER_7_121
*526 FILLER_7_128
*527 FILLER_7_13
*528 FILLER_7_135
*529 FILLER_7_142
*530 FILLER_7_150
*531 FILLER_7_157
*532 FILLER_7_164
*533 FILLER_7_171
*534 FILLER_7_178
*535 FILLER_7_185
*536 FILLER_7_198
*537 FILLER_7_20
*538 FILLER_7_200
*539 FILLER_7_27
*540 FILLER_7_34
*541 FILLER_7_42
*542 FILLER_7_49
*543 FILLER_7_56
*544 FILLER_7_63
*545 FILLER_7_7
*546 FILLER_7_72
*547 FILLER_7_79
*548 FILLER_7_86
*549 FILLER_7_93
*550 FILLER_8_0
*551 FILLER_8_102
*552 FILLER_8_109
*553 FILLER_8_116
*554 FILLER_8_12
*555 FILLER_8_123
*556 FILLER_8_130
*557 FILLER_8_137
*558 FILLER_8_144
*559 FILLER_8_146
*560 FILLER_8_155
*561 FILLER_8_162
*562 FILLER_8_164
*563 FILLER_8_169
*564 FILLER_8_173
*565 FILLER_8_178
*566 FILLER_8_185
*567 FILLER_8_19
*568 FILLER_8_192
*569 FILLER_8_26
*570 FILLER_8_33
*571 FILLER_8_38
*572 FILLER_8_45
*573 FILLER_8_52
*574 FILLER_8_56
*575 FILLER_8_62
*576 FILLER_8_66
*577 FILLER_8_7
*578 FILLER_8_71
*579 FILLER_8_79
*580 FILLER_8_85
*581 FILLER_8_89
*582 FILLER_8_95
*583 FILLER_9_0
*584 FILLER_9_104
*585 FILLER_9_11
*586 FILLER_9_111
*587 FILLER_9_118
*588 FILLER_9_122
*589 FILLER_9_135
*590 FILLER_9_142
*591 FILLER_9_146
*592 FILLER_9_152
*593 FILLER_9_159
*594 FILLER_9_166
*595 FILLER_9_171
*596 FILLER_9_178
*597 FILLER_9_18
*598 FILLER_9_25
*599 FILLER_9_32
*600 FILLER_9_39
*601 FILLER_9_46
*602 FILLER_9_53
*603 FILLER_9_60
*604 FILLER_9_67
*605 FILLER_9_74
*606 FILLER_9_78
*607 FILLER_9_83
*608 FILLER_9_90
*609 FILLER_9_97
*610 _00_
*611 _01_
*612 _02_
*613 _03_
*614 _04_
*615 _05_
*616 _06_
*617 _07_
*618 _08_
*619 _09_
*620 _10_
*621 _11_
*622 _12_
*623 _13_
*624 _14_
*625 _15_
*626 _16_
*627 _17_
*628 _18_
*629 _19_
*630 _20_
*631 _21_
*632 _22_
*633 _23_
*634 _24_
*635 _25_
*636 _26_
*637 _27_
*638 _28_
*639 _29_
*640 _30_
*641 _31_
*642 _32_
*643 _33_
*644 _34_
*645 _35_
*646 _36_
*647 _37_
*648 _38_
*649 _39_
*650 _40_
*651 _41_
*652 _42_
*653 _43_
*654 _44_
*655 _45_
*656 _46_
*657 _47_
*658 _48_
*659 _49_
*660 _50_
*661 _51_
*662 _52_
*663 _53_
*664 _54_
*665 _55_
*666 _56_
*667 _57_
*668 _58_
*669 _59_
*670 _60_
*671 _61_
*672 _62_
*673 _63_
*674 _64_
*675 _65_
*676 _66_
*677 _67_
*678 _68_
*679 _69_
*680 _70_
*681 _71_
*682 _72_
*683 _73_
*684 _74_
*685 _75_
*686 _76_
*687 _77_
*688 _78_
*689 _79_
*690 _80_
*691 _81_
*692 _82_
*693 _83_
*694 _84_
*695 _85_
*696 _86_
*697 _87_
*698 _88_
*699 output1
*700 output10
*701 output11
*702 output12
*703 output13
*704 output14
*705 output15
*706 output16
*707 output17
*708 output18
*709 output19
*710 output2
*711 output20
*712 output21
*713 output22
*714 output23
*715 output24
*716 output25
*717 output26
*718 output27
*719 output28
*720 output29
*721 output3
*722 output30
*723 output31
*724 output32
*725 output33
*726 output34
*727 output35
*728 output36
*729 output37
*730 output38
*731 output39
*732 output4
*733 output40
*734 output41
*735 output42
*736 output43
*737 output44
*738 output45
*739 output46
*740 output47
*741 output48
*742 output49
*743 output5
*744 output50
*745 output51
*746 output52
*747 output53
*748 output54
*749 output55
*750 output56
*751 output57
*752 output58
*753 output59
*754 output6
*755 output60
*756 output61
*757 output62
*758 output63
*759 output64
*760 output65
*761 output66
*762 output67
*763 output68
*764 output69
*765 output7
*766 output70
*767 output71
*768 output72
*769 output73
*770 output74
*771 output75
*772 output76
*773 output77
*774 output78
*775 output79
*776 output8
*777 output80
*778 output81
*779 output82
*780 output83
*781 output84
*782 output85
*783 output86
*784 output87
*785 output88
*786 output89
*787 output9

*PORTS
FrameData[0] I
FrameData[10] I
FrameData[11] I
FrameData[12] I
FrameData[13] I
FrameData[14] I
FrameData[15] I
FrameData[16] I
FrameData[17] I
FrameData[18] I
FrameData[19] I
FrameData[1] I
FrameData[20] I
FrameData[21] I
FrameData[22] I
FrameData[23] I
FrameData[24] I
FrameData[25] I
FrameData[26] I
FrameData[27] I
FrameData[28] I
FrameData[29] I
FrameData[2] I
FrameData[30] I
FrameData[31] I
FrameData[3] I
FrameData[4] I
FrameData[5] I
FrameData[6] I
FrameData[7] I
FrameData[8] I
FrameData[9] I
FrameData_O[0] O
FrameData_O[10] O
FrameData_O[11] O
FrameData_O[12] O
FrameData_O[13] O
FrameData_O[14] O
FrameData_O[15] O
FrameData_O[16] O
FrameData_O[17] O
FrameData_O[18] O
FrameData_O[19] O
FrameData_O[1] O
FrameData_O[20] O
FrameData_O[21] O
FrameData_O[22] O
FrameData_O[23] O
FrameData_O[24] O
FrameData_O[25] O
FrameData_O[26] O
FrameData_O[27] O
FrameData_O[28] O
FrameData_O[29] O
FrameData_O[2] O
FrameData_O[30] O
FrameData_O[31] O
FrameData_O[3] O
FrameData_O[4] O
FrameData_O[5] O
FrameData_O[6] O
FrameData_O[7] O
FrameData_O[8] O
FrameData_O[9] O
FrameStrobe[0] I
FrameStrobe[10] I
FrameStrobe[11] I
FrameStrobe[12] I
FrameStrobe[13] I
FrameStrobe[14] I
FrameStrobe[15] I
FrameStrobe[16] I
FrameStrobe[17] I
FrameStrobe[18] I
FrameStrobe[19] I
FrameStrobe[1] I
FrameStrobe[2] I
FrameStrobe[3] I
FrameStrobe[4] I
FrameStrobe[5] I
FrameStrobe[6] I
FrameStrobe[7] I
FrameStrobe[8] I
FrameStrobe[9] I
FrameStrobe_O[0] O
FrameStrobe_O[10] O
FrameStrobe_O[11] O
FrameStrobe_O[12] O
FrameStrobe_O[13] O
FrameStrobe_O[14] O
FrameStrobe_O[15] O
FrameStrobe_O[16] O
FrameStrobe_O[17] O
FrameStrobe_O[18] O
FrameStrobe_O[19] O
FrameStrobe_O[1] O
FrameStrobe_O[2] O
FrameStrobe_O[3] O
FrameStrobe_O[4] O
FrameStrobe_O[5] O
FrameStrobe_O[6] O
FrameStrobe_O[7] O
FrameStrobe_O[8] O
FrameStrobe_O[9] O
N1END[0] I
N1END[1] I
N1END[2] I
N1END[3] I
N2END[0] I
N2END[1] I
N2END[2] I
N2END[3] I
N2END[4] I
N2END[5] I
N2END[6] I
N2END[7] I
N2MID[0] I
N2MID[1] I
N2MID[2] I
N2MID[3] I
N2MID[4] I
N2MID[5] I
N2MID[6] I
N2MID[7] I
N4END[0] I
N4END[10] I
N4END[11] I
N4END[12] I
N4END[13] I
N4END[14] I
N4END[15] I
N4END[1] I
N4END[2] I
N4END[3] I
N4END[4] I
N4END[5] I
N4END[6] I
N4END[7] I
N4END[8] I
N4END[9] I
S1BEG[0] O
S1BEG[1] O
S1BEG[2] O
S1BEG[3] O
S2BEG[0] O
S2BEG[1] O
S2BEG[2] O
S2BEG[3] O
S2BEG[4] O
S2BEG[5] O
S2BEG[6] O
S2BEG[7] O
S2BEGb[0] O
S2BEGb[1] O
S2BEGb[2] O
S2BEGb[3] O
S2BEGb[4] O
S2BEGb[5] O
S2BEGb[6] O
S2BEGb[7] O
S4BEG[0] O
S4BEG[10] O
S4BEG[11] O
S4BEG[12] O
S4BEG[13] O
S4BEG[14] O
S4BEG[15] O
S4BEG[1] O
S4BEG[2] O
S4BEG[3] O
S4BEG[4] O
S4BEG[5] O
S4BEG[6] O
S4BEG[7] O
S4BEG[8] O
S4BEG[9] O
UserCLK I
UserCLKo O

*D_NET *1 0.0106893
*CONN
*P FrameData[0] I
*I *610:A I *D sg13g2_buf_1
*CAP
1 FrameData[0] 0.00430505
2 *610:A 0
3 *1:15 0.000712601
4 *1:5 0.00501765
5 *1:5 *12:11 0
6 *1:5 *23:23 0
7 *1:15 S4BEG[15] 0
8 *1:15 *12:29 0
9 *1:15 *77:9 0
10 *1:15 *78:11 0
11 *1:15 *135:37 4.64355e-05
12 *1:15 *265:10 0.00024054
13 *1:15 *267:10 0.000366996
*RES
1 FrameData[0] *1:5 40.9708 
2 *1:5 *1:15 47.7868 
3 *1:15 *610:A 20 
*END

*D_NET *2 0.0177933
*CONN
*P FrameData[10] I
*I *620:A I *D sg13g2_buf_1
*CAP
1 FrameData[10] 0.00054167
2 *620:A 0
3 *2:23 0.00410429
4 *2:11 0.00464596
5 *2:11 *3:5 0
6 *2:11 *28:11 0.000209956
7 *2:11 *29:11 0
8 *2:11 *32:9 0
9 *2:11 *76:13 0
10 *2:23 FrameData_O[11] 0.000313554
11 *2:23 *619:A 0.00151078
12 *2:23 *721:A 4.8613e-05
13 *2:23 *743:A 0
14 *2:23 *4:9 0.00354598
15 *2:23 *28:13 0
16 *2:23 *29:13 0
17 *2:23 *108:9 0.00145234
18 *2:23 *115:15 0.000128201
19 *2:23 *116:13 0.000181383
20 *2:23 *205:12 0
21 *2:23 *206:10 0
22 *2:23 *229:8 0
23 *2:23 *243:8 0.00111058
*RES
1 FrameData[10] *2:11 45.6933 
2 *2:11 *2:23 47.7405 
3 *2:23 *620:A 20 
*END

*D_NET *3 0.0151129
*CONN
*P FrameData[11] I
*I *621:A I *D sg13g2_buf_1
*CAP
1 FrameData[11] 0.00524014
2 *621:A 0
3 *3:11 0.000255693
4 *3:5 0.00549583
5 *3:5 *644:A 0
6 *3:5 *696:A 0
7 *3:5 *4:9 0
8 *3:5 *28:13 0
9 *3:5 *32:9 0
10 *3:5 *140:13 0
11 *3:5 *204:22 0.000181194
12 *3:5 *220:8 0
13 *3:5 *236:18 0.000977285
14 *3:5 *263:8 0.00212103
15 *3:11 *723:A 0.000372332
16 *3:11 *70:15 0.000469433
17 *3:11 *71:17 0
18 *2:11 *3:5 0
*RES
1 FrameData[11] *3:5 47.6452 
2 *3:5 *3:11 43.1312 
3 *3:11 *621:A 20 
*END

*D_NET *4 0.0189466
*CONN
*P FrameData[12] I
*I *622:A I *D sg13g2_buf_1
*CAP
1 FrameData[12] 0.00173646
2 *622:A 0
3 *4:23 0.00150892
4 *4:17 0.00211772
5 *4:9 0.00234526
6 *4:9 *639:A 0
7 *4:9 *5:11 0
8 *4:9 *28:13 0
9 *4:9 *29:13 0
10 *4:9 *229:8 0.00153655
11 *4:9 *235:16 0.000209449
12 *4:17 *29:13 0.00119036
13 *4:17 *230:10 0.000704486
14 *4:17 *234:16 0.000403812
15 *4:17 *239:20 0
16 *4:17 *244:8 0
17 *4:23 *624:A 0.000766665
18 *4:23 *765:A 0.000101685
19 *4:23 *9:21 0
20 *4:23 *17:23 0
21 *4:23 *17:29 0
22 *4:23 *71:17 0
23 *4:23 *79:13 0
24 *4:23 *185:10 0.00084678
25 *4:23 *236:10 0.00116601
26 *4:23 *245:8 0.000766437
27 *2:23 *4:9 0.00354598
28 *3:5 *4:9 0
*RES
1 FrameData[12] *4:9 41.854 
2 *4:9 *4:17 48.24 
3 *4:17 *4:23 38.6842 
4 *4:23 *622:A 20 
*END

*D_NET *5 0.0169657
*CONN
*P FrameData[13] I
*I *623:A I *D sg13g2_buf_1
*CAP
1 FrameData[13] 0.000742707
2 *623:A 0
3 *5:21 0.000326671
4 *5:13 0.00442201
5 *5:11 0.00483804
6 *5:11 *639:A 0
7 *5:11 *6:15 0
8 *5:11 *8:9 0
9 *5:11 *22:9 0
10 *5:11 *29:11 0
11 *5:13 *11:23 0.000181422
12 *5:13 *11:37 0
13 *5:13 *13:5 0
14 *5:13 *72:19 0
15 *5:13 *82:17 0.00518171
16 *5:13 *119:9 0
17 *5:13 *123:23 0.000657149
18 *5:13 *182:16 0
19 *5:13 *186:20 0
20 *5:21 *84:13 0
21 *5:21 *185:18 0.000275666
22 *5:21 *186:20 0.000340291
23 *4:9 *5:11 0
*RES
1 FrameData[13] *5:11 48.1344 
2 *5:11 *5:13 42.3742 
3 *5:13 *5:21 43.4196 
4 *5:21 *623:A 20 
*END

*D_NET *6 0.01626
*CONN
*P FrameData[14] I
*I *624:A I *D sg13g2_buf_1
*CAP
1 FrameData[14] 0.000119304
2 *624:A 0.000881579
3 *6:19 0.00263517
4 *6:15 0.00187289
5 *624:A *17:23 0
6 *624:A *17:29 0
7 *624:A *246:16 0.000274352
8 *624:A *248:14 0
9 *6:15 *639:A 2.20968e-05
10 *6:15 *22:9 4.77421e-05
11 *6:19 *639:A 0
12 *6:19 *7:5 0.00634108
13 *6:19 *29:13 0
14 *6:19 *107:9 0.000128201
15 *6:19 *114:15 0.00235874
16 *6:19 *121:9 0.000763611
17 *6:19 *195:8 4.8613e-05
18 *6:19 *237:6 0
19 *6:19 *244:8 0
20 *4:23 *624:A 0.000766665
21 *5:11 *6:15 0
*RES
1 FrameData[14] *6:15 41.3879 
2 *6:15 *6:19 49.5198 
3 *6:19 *624:A 49.7747 
*END

*D_NET *7 0.0193856
*CONN
*P FrameData[15] I
*I *625:A I *D sg13g2_buf_1
*CAP
1 FrameData[15] 0.00240715
2 *625:A 0
3 *7:11 0.00017233
4 *7:5 0.00257948
5 *7:5 *617:A 0.00156456
6 *7:5 *8:9 0
7 *7:5 *29:13 0
8 *7:5 *78:17 0.00603046
9 *7:5 *79:13 0
10 *7:5 *124:31 0
11 *7:5 *219:8 0
12 *7:11 *79:7 0.000112679
13 *7:11 *81:15 0
14 *7:11 *236:10 0.000177852
15 *6:19 *7:5 0.00634108
*RES
1 FrameData[15] *7:5 42.9484 
2 *7:5 *7:11 41.8334 
3 *7:11 *625:A 20 
*END

*D_NET *8 0.014696
*CONN
*P FrameData[16] I
*I *626:A I *D sg13g2_buf_1
*CAP
1 FrameData[16] 0.000977429
2 *626:A 0
3 *8:23 0.00482338
4 *8:11 0.00482338
5 *8:9 0.000977429
6 *8:9 *9:11 0
7 *8:9 *15:11 0
8 *8:9 *76:13 0
9 *8:9 *207:10 0
10 *8:23 *17:9 0
11 *8:23 *18:5 0.00133748
12 *8:23 *188:30 9.57154e-05
13 *8:23 *194:8 0
14 *8:23 *194:24 0.000925912
15 *8:23 *212:10 0.00020771
16 *8:23 *227:10 0.000527547
17 *5:11 *8:9 0
18 *7:5 *8:9 0
*RES
1 FrameData[16] *8:9 30.6064 
2 *8:9 *8:11 20 
3 *8:11 *8:23 43.1982 
4 *8:23 *626:A 20 
*END

*D_NET *9 0.0166701
*CONN
*P FrameData[17] I
*I *627:A I *D sg13g2_buf_1
*CAP
1 FrameData[17] 5.43725e-05
2 *627:A 0
3 *9:31 0.00042672
4 *9:25 0.0014038
5 *9:21 0.00126404
6 *9:15 0.0024063
7 *9:11 0.00217371
8 *9:11 *22:9 4.67219e-05
9 *9:15 *10:17 0
10 *9:15 *15:13 0.0041165
11 *9:21 *79:13 0
12 *9:21 *182:10 4.8613e-05
13 *9:21 *238:14 0
14 *9:21 *239:16 0.000872502
15 *9:21 *245:8 0
16 *9:25 *15:13 0.00358383
17 *9:31 *81:15 0
18 *9:31 *82:11 0.000273006
19 *9:31 *185:18 0
20 *4:23 *9:21 0
21 *8:9 *9:11 0
*RES
1 FrameData[17] *9:11 40.5021 
2 *9:11 *9:15 43.3398 
3 *9:15 *9:21 44.0582 
4 *9:21 *9:25 36.6654 
5 *9:25 *9:31 43.7801 
6 *9:31 *627:A 20 
*END

*D_NET *10 0.00555628
*CONN
*P FrameData[18] I
*I *628:A I *D sg13g2_buf_1
*CAP
1 FrameData[18] 5.5385e-05
2 *628:A 0
3 *10:17 0.00264433
4 *10:11 0.00269972
5 *10:11 *22:9 4.67222e-05
6 *10:17 *79:17 0
7 *10:17 *233:12 0.00011013
8 *9:15 *10:17 0
*RES
1 FrameData[18] *10:11 40.5021 
2 *10:11 *10:17 43.5973 
3 *10:17 *628:A 40 
*END

*D_NET *11 0.0169981
*CONN
*P FrameData[19] I
*I *629:A I *D sg13g2_buf_1
*CAP
1 FrameData[19] 0.00152336
2 *629:A 0.00239009
3 *11:37 0.00415025
4 *11:23 0.00328352
5 *629:A FrameData_O[18] 0.000101645
6 *629:A *17:23 2.18719e-05
7 *629:A *17:29 0
8 *629:A *72:19 0
9 *629:A *182:16 4.74605e-05
10 *11:23 *739:A 4.72599e-05
11 *11:23 *13:5 0
12 *11:23 *17:23 0
13 *11:23 *119:9 0.000499805
14 *11:23 *123:23 0.000551169
15 *11:23 *186:12 0
16 *11:23 *222:10 0.000207176
17 *11:23 *239:16 0
18 *11:37 *17:23 0.000498662
19 *11:37 *82:17 0
20 *11:37 *123:23 0
21 *11:37 *182:16 0.00209606
22 *11:37 *233:8 0.000102007
23 *11:37 *234:12 0.00129636
24 *5:13 *11:23 0.000181422
25 *5:13 *11:37 0
*RES
1 FrameData[19] *11:23 36.8894 
2 *11:23 *11:37 39.8069 
3 *11:37 *629:A 37.7675 
*END

*D_NET *12 0.0187655
*CONN
*P FrameData[1] I
*I *611:A I *D sg13g2_buf_1
*CAP
1 FrameData[1] 0.00061736
2 *611:A 0
3 *12:29 0.00128638
4 *12:23 0.00154007
5 *12:15 0.00183391
6 *12:11 0.00219759
7 *12:11 *665:A 0
8 *12:11 *23:11 0
9 *12:11 *23:23 0
10 *12:15 *27:9 0
11 *12:15 *30:5 0
12 *12:15 *137:13 0.000855571
13 *12:15 *231:6 0.00291514
14 *12:23 S1BEG[3] 0
15 *12:23 *233:12 7.89551e-05
16 *12:29 S4BEG[1] 0
17 *12:29 S4BEG[5] 0
18 *12:29 S4BEG[9] 0.000420162
19 *12:29 *768:A 0.00241101
20 *12:29 *779:A 0
21 *12:29 *783:A 0
22 *12:29 *26:29 0.00108369
23 *12:29 *136:13 0.00352567
24 *12:29 *136:21 0
25 *1:5 *12:11 0
26 *1:15 *12:29 0
*RES
1 FrameData[1] *12:11 46.9911 
2 *12:11 *12:15 37.9014 
3 *12:15 *12:23 42.6162 
4 *12:23 *12:29 42.5467 
5 *12:29 *611:A 20 
*END

*D_NET *13 0.0107578
*CONN
*P FrameData[20] I
*I *630:A I *D sg13g2_buf_1
*CAP
1 FrameData[20] 0.00328658
2 *630:A 0
3 *13:11 0.000273084
4 *13:5 0.00355966
5 *13:5 *14:9 0
6 *13:5 *186:20 0.00363849
7 *13:5 *249:10 0
8 *13:11 *248:14 0
9 *13:11 *249:14 0
10 *5:13 *13:5 0
11 *11:23 *13:5 0
*RES
1 FrameData[20] *13:5 33.0604 
2 *13:5 *13:11 42.6986 
3 *13:11 *630:A 20 
*END

*D_NET *14 0.00825831
*CONN
*P FrameData[21] I
*I *631:A I *D sg13g2_buf_1
*CAP
1 FrameData[21] 0.00178248
2 *631:A 0.000917452
3 *14:9 0.00269993
4 *631:A *31:13 0
5 *631:A *125:15 0.000234455
6 *631:A *241:6 0
7 *14:9 *642:A 0
8 *14:9 *737:A 0
9 *14:9 *15:11 0
10 *14:9 *16:9 0
11 *14:9 *65:17 0
12 *14:9 *119:9 0.00144045
13 *14:9 *120:9 0.00118354
14 *14:9 *207:10 0
15 *13:5 *14:9 0
*RES
1 FrameData[21] *14:9 39.1966 
2 *14:9 *631:A 47.7662 
*END

*D_NET *15 0.016244
*CONN
*P FrameData[22] I
*I *632:A I *D sg13g2_buf_1
*CAP
1 FrameData[22] 0.00082626
2 *632:A 0
3 *15:19 0.000428983
4 *15:13 0.00303669
5 *15:11 0.00343397
6 *15:11 *16:9 0
7 *15:11 *250:16 0
8 *15:13 *29:23 0
9 *15:19 *17:29 0
10 *15:19 *71:17 0.000817771
11 *15:19 *214:12 0
12 *8:9 *15:11 0
13 *9:15 *15:13 0.0041165
14 *9:25 *15:13 0.00358383
15 *14:9 *15:11 0
*RES
1 FrameData[22] *15:11 48.8142 
2 *15:11 *15:13 40.3966 
3 *15:13 *15:19 45.047 
4 *15:19 *632:A 20 
*END

*D_NET *16 0.00793628
*CONN
*P FrameData[23] I
*I *633:A I *D sg13g2_buf_1
*CAP
1 FrameData[23] 0.00206117
2 *633:A 0.000381716
3 *16:9 0.00244289
4 *633:A *644:A 0.00118888
5 *633:A *132:13 0.000234793
6 *633:A *240:10 0
7 *16:9 *642:A 0
8 *16:9 *681:A 0
9 *16:9 *17:9 0
10 *16:9 *109:17 0
11 *16:9 *123:23 0
12 *16:9 *124:27 0
13 *16:9 *220:12 0.00162683
14 *16:9 *250:8 0
15 *14:9 *16:9 0
16 *15:11 *16:9 0
*RES
1 FrameData[23] *16:9 41.9158 
2 *16:9 *633:A 45.5414 
*END

*D_NET *17 0.0163088
*CONN
*P FrameData[24] I
*I *634:A I *D sg13g2_buf_1
*CAP
1 FrameData[24] 0.0016134
2 *634:A 0
3 *17:29 0.00226993
4 *17:23 0.00482495
5 *17:9 0.00416842
6 *17:9 *681:A 0.000819131
7 *17:9 *739:A 0
8 *17:9 *18:5 0
9 *17:9 *110:9 0
10 *17:9 *111:7 0.000437614
11 *17:9 *112:7 0.000404505
12 *17:9 *220:12 0
13 *17:23 *234:12 0.00107259
14 *17:23 *239:16 0
15 *17:29 *71:17 0
16 *17:29 *187:10 0
17 *17:29 *189:10 0
18 *17:29 *269:10 0.000177705
19 *624:A *17:23 0
20 *624:A *17:29 0
21 *629:A *17:23 2.18719e-05
22 *629:A *17:29 0
23 *4:23 *17:23 0
24 *4:23 *17:29 0
25 *8:23 *17:9 0
26 *11:23 *17:23 0
27 *11:37 *17:23 0.000498662
28 *15:19 *17:29 0
29 *16:9 *17:9 0
*RES
1 FrameData[24] *17:9 35.2474 
2 *17:9 *17:23 42.7733 
3 *17:23 *17:29 39.0859 
4 *17:29 *634:A 40 
*END

*D_NET *18 0.0112613
*CONN
*P FrameData[25] I
*I *635:A I *D sg13g2_buf_1
*CAP
1 FrameData[25] 0.0046237
2 *635:A 0
3 *18:11 0.000338207
4 *18:5 0.00496191
5 *18:5 *653:A 0
6 *18:5 *654:A 0
7 *18:5 *655:A 0
8 *18:5 *19:11 0
9 *18:5 *20:13 0
10 *18:5 *209:10 0
11 *18:5 *211:10 0
12 *18:11 *213:10 0
13 *8:23 *18:5 0.00133748
14 *17:9 *18:5 0
*RES
1 FrameData[25] *18:5 39.4876 
2 *18:5 *18:11 43.1312 
3 *18:11 *635:A 20 
*END

*D_NET *19 0.0149178
*CONN
*P FrameData[26] I
*I *636:A I *D sg13g2_buf_1
*CAP
1 FrameData[26] 0.00221358
2 *636:A 0
3 *19:21 0.000204706
4 *19:15 0.00193789
5 *19:11 0.00394676
6 *19:11 *640:A 0
7 *19:11 *20:9 0
8 *19:11 *20:13 0.00363332
9 *19:11 *25:27 0
10 *19:11 *268:10 0
11 *19:15 *194:16 0
12 *19:15 *197:12 0.0026285
13 *19:21 *57:10 0.000208861
14 *19:21 *73:17 0
15 *19:21 *74:19 0.000144202
16 *19:21 *218:14 0
17 *18:5 *19:11 0
*RES
1 FrameData[26] *19:11 46.3139 
2 *19:11 *19:15 44.0814 
3 *19:15 *19:21 42.0497 
4 *19:21 *636:A 20 
*END

*D_NET *20 0.0120584
*CONN
*P FrameData[27] I
*I *637:A I *D sg13g2_buf_1
*CAP
1 FrameData[27] 0.00105385
2 *637:A 0
3 *20:19 0.000178043
4 *20:13 0.00282868
5 *20:9 0.00370448
6 *20:9 *725:A 0
7 *20:9 *737:A 0
8 *20:9 *21:9 0
9 *20:9 *25:27 0.000660035
10 *20:9 *220:12 0
11 *20:13 *640:A 0
12 *20:13 *84:25 0
13 *20:13 *197:8 0
14 *20:19 *21:15 0
15 *20:19 *193:10 0
16 *18:5 *20:13 0
17 *19:11 *20:9 0
18 *19:11 *20:13 0.00363332
*RES
1 FrameData[27] *20:9 30.4828 
2 *20:9 *20:13 46.5534 
3 *20:13 *20:19 41.8334 
4 *20:19 *637:A 20 
*END

*D_NET *21 0.00945929
*CONN
*P FrameData[28] I
*I *638:A I *D sg13g2_buf_1
*CAP
1 FrameData[28] 0.00380646
2 *638:A 0
3 *21:15 0.000432135
4 *21:9 0.00423859
5 *21:9 FrameStrobe_O[0] 4.8786e-05
6 *21:9 FrameStrobe_O[10] 4.8786e-05
7 *21:9 FrameStrobe_O[11] 4.8786e-05
8 *21:9 FrameStrobe_O[1] 4.8786e-05
9 *21:9 FrameStrobe_O[2] 4.83259e-05
10 *21:9 FrameStrobe_O[3] 0.00010115
11 *21:9 FrameStrobe_O[4] 4.8786e-05
12 *21:9 FrameStrobe_O[5] 4.8786e-05
13 *21:9 FrameStrobe_O[6] 4.8786e-05
14 *21:9 FrameStrobe_O[7] 4.8747e-05
15 *21:9 FrameStrobe_O[8] 4.8786e-05
16 *21:9 FrameStrobe_O[9] 4.8786e-05
17 *21:9 UserCLKo 0.000102007
18 *21:9 *725:A 0
19 *21:9 *726:A 0
20 *21:9 *727:A 0
21 *21:9 *739:A 0
22 *21:9 *740:A 0
23 *21:9 *744:A 0
24 *21:9 *22:9 0
25 *21:9 *24:9 0
26 *21:9 *25:27 0
27 *21:9 *195:16 0
28 *21:15 *193:10 0
29 *21:15 *208:10 0
30 *21:15 *209:10 0.000242803
31 *20:9 *21:9 0
32 *20:19 *21:15 0
*RES
1 FrameData[28] *21:9 35.1822 
2 *21:9 *21:15 43.417 
3 *21:15 *638:A 20 
*END

*D_NET *22 0.00407049
*CONN
*P FrameData[29] I
*I *639:A I *D sg13g2_buf_1
*CAP
1 FrameData[29] 0.00116268
2 *639:A 0.000649389
3 *22:9 0.00181207
4 *639:A *29:13 0
5 *639:A *107:9 0.000128201
6 *639:A *230:10 0.000154867
7 *22:9 *24:9 0
8 *4:9 *639:A 0
9 *5:11 *639:A 0
10 *5:11 *22:9 0
11 *6:15 *639:A 2.20968e-05
12 *6:15 *22:9 4.77421e-05
13 *6:19 *639:A 0
14 *9:11 *22:9 4.67219e-05
15 *10:11 *22:9 4.67222e-05
16 *21:9 *22:9 0
*RES
1 FrameData[29] *22:9 33.2947 
2 *22:9 *639:A 46.3551 
*END

*D_NET *23 0.01641
*CONN
*P FrameData[2] I
*I *612:A I *D sg13g2_buf_1
*CAP
1 FrameData[2] 6.66683e-05
2 *612:A 3.15565e-05
3 *23:29 0.00145176
4 *23:23 0.00585098
5 *23:11 0.00449744
6 *612:A *718:A 7.51291e-05
7 *23:23 S2BEGb[7] 0.000334627
8 *23:23 S4BEG[14] 0.000462346
9 *23:23 S4BEG[3] 0.000125658
10 *23:23 S4BEG[5] 0.000177654
11 *23:23 S4BEG[7] 0.00034048
12 *23:23 *26:9 0.00194553
13 *23:29 FrameData_O[1] 0
14 *23:29 S4BEG[14] 0
15 *23:29 *774:A 0
16 *23:29 *55:14 0.000177677
17 *23:29 *72:19 0.000436709
18 *23:29 *74:19 0.0004358
19 *1:5 *23:23 0
20 *12:11 *23:11 0
21 *12:11 *23:23 0
*RES
1 FrameData[2] *23:11 40.7184 
2 *23:11 *23:23 42.5493 
3 *23:23 *23:29 31.4227 
4 *23:29 *612:A 40.3502 
*END

*D_NET *24 0.00628052
*CONN
*P FrameData[30] I
*I *640:A I *D sg13g2_buf_1
*CAP
1 FrameData[30] 0.00228501
2 *640:A 0.000741916
3 *24:9 0.00302693
4 *640:A *25:27 0
5 *640:A *84:25 0
6 *640:A *228:10 4.8786e-05
7 *24:9 FrameStrobe_O[6] 0
8 *24:9 FrameStrobe_O[7] 0.000177882
9 *24:9 UserCLKo 0
10 *24:9 *25:11 0
11 *24:9 *195:16 0
12 *24:9 *226:10 0
13 *19:11 *640:A 0
14 *20:13 *640:A 0
15 *21:9 *24:9 0
16 *22:9 *24:9 0
*RES
1 FrameData[30] *24:9 45.5311 
2 *24:9 *640:A 47.3439 
*END

*D_NET *25 0.015985
*CONN
*P FrameData[31] I
*I *641:A I *D sg13g2_buf_1
*CAP
1 FrameData[31] 0.00063651
2 *641:A 0
3 *25:27 0.00421605
4 *25:11 0.00485256
5 *25:11 FrameStrobe_O[0] 0
6 *25:11 UserCLKo 0
7 *25:11 *268:10 0.000177928
8 *25:27 FrameData_O[27] 0.000154678
9 *25:27 *654:A 0.00107847
10 *25:27 *726:A 0.0006606
11 *25:27 *727:A 0
12 *25:27 *731:A 0.000394118
13 *25:27 *735:A 0
14 *25:27 *739:A 0
15 *25:27 *740:A 0
16 *25:27 *744:A 0
17 *25:27 *56:18 0
18 *25:27 *84:25 0.00262691
19 *25:27 *193:24 0
20 *25:27 *195:16 0
21 *25:27 *216:10 0
22 *25:27 *268:10 0.000527171
23 *640:A *25:27 0
24 *19:11 *25:27 0
25 *20:9 *25:27 0.000660035
26 *21:9 *25:27 0
27 *24:9 *25:11 0
*RES
1 FrameData[31] *25:11 47.1765 
2 *25:11 *25:27 49.9241 