* NGSPICE file created from DSP.ext - technology: ihp-sg13g2

* Black-box entry subcircuit for sg13g2_o21ai_1 abstract view
.subckt sg13g2_o21ai_1 B1 VDD Y VSS A1 A2
.ends

* Black-box entry subcircuit for sg13g2_mux4_1 abstract view
.subckt sg13g2_mux4_1 S0 A0 A1 A2 A3 S1 X VDD VSS
.ends

* Black-box entry subcircuit for sg13g2_dlhq_1 abstract view
.subckt sg13g2_dlhq_1 D GATE Q VDD VSS
.ends

* Black-box entry subcircuit for sg13g2_fill_1 abstract view
.subckt sg13g2_fill_1 VDD VSS
.ends

* Black-box entry subcircuit for sg13g2_inv_1 abstract view
.subckt sg13g2_inv_1 VDD Y A VSS
.ends

* Black-box entry subcircuit for sg13g2_buf_1 abstract view
.subckt sg13g2_buf_1 A X VDD VSS
.ends

* Black-box entry subcircuit for sg13g2_dlygate4sd1_1 abstract view
.subckt sg13g2_dlygate4sd1_1 A X VDD VSS
.ends

* Black-box entry subcircuit for sg13g2_fill_2 abstract view
.subckt sg13g2_fill_2 VDD VSS
.ends

* Black-box entry subcircuit for sg13g2_nor2_2 abstract view
.subckt sg13g2_nor2_2 A B Y VDD VSS
.ends

* Black-box entry subcircuit for sg13g2_a21oi_1 abstract view
.subckt sg13g2_a21oi_1 VSS VDD A1 A2 Y B1
.ends

* Black-box entry subcircuit for sg13g2_dfrbp_1 abstract view
.subckt sg13g2_dfrbp_1 CLK RESET_B D Q_N Q VDD VSS
.ends

* Black-box entry subcircuit for sg13g2_decap_4 abstract view
.subckt sg13g2_decap_4 VDD VSS
.ends

* Black-box entry subcircuit for sg13g2_decap_8 abstract view
.subckt sg13g2_decap_8 VDD VSS
.ends

* Black-box entry subcircuit for sg13g2_buf_16 abstract view
.subckt sg13g2_buf_16 X A VDD VSS
.ends

* Black-box entry subcircuit for sg13g2_nor2b_1 abstract view
.subckt sg13g2_nor2b_1 A B_N Y VDD VSS
.ends

* Black-box entry subcircuit for sg13g2_tiehi abstract view
.subckt sg13g2_tiehi VDD VSS L_HI
.ends

* Black-box entry subcircuit for sg13g2_a21oi_2 abstract view
.subckt sg13g2_a21oi_2 VSS VDD B1 Y A2 A1
.ends

* Black-box entry subcircuit for sg13g2_nand2b_1 abstract view
.subckt sg13g2_nand2b_1 Y B A_N VDD VSS
.ends

* Black-box entry subcircuit for sg13g2_nand2_1 abstract view
.subckt sg13g2_nand2_1 Y A B VDD VSS
.ends

* Black-box entry subcircuit for sg13g2_or2_1 abstract view
.subckt sg13g2_or2_1 VSS VDD X B A
.ends

* Black-box entry subcircuit for sg13g2_buf_2 abstract view
.subckt sg13g2_buf_2 A X VDD VSS
.ends

* Black-box entry subcircuit for sg13g2_a22oi_1 abstract view
.subckt sg13g2_a22oi_1 Y B1 B2 A2 A1 VDD VSS
.ends

* Black-box entry subcircuit for sg13g2_xor2_1 abstract view
.subckt sg13g2_xor2_1 B A X VDD VSS
.ends

* Black-box entry subcircuit for sg13g2_a221oi_1 abstract view
.subckt sg13g2_a221oi_1 VSS VDD B2 C1 B1 A1 Y A2
.ends

* Black-box entry subcircuit for sg13g2_a21o_1 abstract view
.subckt sg13g2_a21o_1 A2 A1 B1 X VDD VSS
.ends

* Black-box entry subcircuit for sg13g2_nand3_1 abstract view
.subckt sg13g2_nand3_1 B C A Y VDD VSS
.ends

* Black-box entry subcircuit for sg13g2_nor2_1 abstract view
.subckt sg13g2_nor2_1 A B Y VDD VSS
.ends

* Black-box entry subcircuit for sg13g2_xnor2_1 abstract view
.subckt sg13g2_xnor2_1 Y A B VDD VSS
.ends

* Black-box entry subcircuit for sg13g2_buf_8 abstract view
.subckt sg13g2_buf_8 A X VDD VSS
.ends

* Black-box entry subcircuit for sg13g2_mux2_1 abstract view
.subckt sg13g2_mux2_1 A0 A1 S X VDD VSS
.ends

* Black-box entry subcircuit for sg13g2_or3_1 abstract view
.subckt sg13g2_or3_1 A B C X VDD VSS
.ends

* Black-box entry subcircuit for sg13g2_nand2_2 abstract view
.subckt sg13g2_nand2_2 Y A B VDD VSS
.ends

* Black-box entry subcircuit for sg13g2_and2_1 abstract view
.subckt sg13g2_and2_1 A B X VDD VSS
.ends

* Black-box entry subcircuit for sg13g2_nor3_2 abstract view
.subckt sg13g2_nor3_2 A B C Y VDD VSS
.ends

* Black-box entry subcircuit for sg13g2_inv_4 abstract view
.subckt sg13g2_inv_4 A Y VDD VSS
.ends

* Black-box entry subcircuit for sg13g2_a21o_2 abstract view
.subckt sg13g2_a21o_2 A2 A1 B1 X VDD VSS
.ends

* Black-box entry subcircuit for sg13g2_inv_2 abstract view
.subckt sg13g2_inv_2 Y A VDD VSS
.ends

* Black-box entry subcircuit for sg13g2_inv_8 abstract view
.subckt sg13g2_inv_8 Y A VDD VSS
.ends

* Black-box entry subcircuit for sg13g2_nand2b_2 abstract view
.subckt sg13g2_nand2b_2 Y B VDD VSS A_N
.ends

* Black-box entry subcircuit for sg13g2_nor3_1 abstract view
.subckt sg13g2_nor3_1 A B C Y VDD VSS
.ends

* Black-box entry subcircuit for sg13g2_dlygate4sd3_1 abstract view
.subckt sg13g2_dlygate4sd3_1 A VDD VSS X
.ends

* Black-box entry subcircuit for sg13g2_mux2_2 abstract view
.subckt sg13g2_mux2_2 A0 A1 S X VDD VSS
.ends

* Black-box entry subcircuit for sg13g2_nor2b_2 abstract view
.subckt sg13g2_nor2b_2 A B_N Y VDD VSS
.ends

* Black-box entry subcircuit for sg13g2_and3_1 abstract view
.subckt sg13g2_and3_1 X A B C VDD VSS
.ends

* Black-box entry subcircuit for sg13g2_nand3b_1 abstract view
.subckt sg13g2_nand3b_1 B C Y VDD VSS A_N
.ends

* Black-box entry subcircuit for sg13g2_inv_16 abstract view
.subckt sg13g2_inv_16 A Y VDD VSS
.ends

* Black-box entry subcircuit for sg13g2_and4_1 abstract view
.subckt sg13g2_and4_1 A B C D X VDD VSS
.ends

.subckt DSP Tile_X0Y0_E1BEG[0] Tile_X0Y0_E1BEG[1] Tile_X0Y0_E1BEG[2] Tile_X0Y0_E1BEG[3]
+ Tile_X0Y0_E1END[0] Tile_X0Y0_E1END[1] Tile_X0Y0_E1END[2] Tile_X0Y0_E1END[3] Tile_X0Y0_E2BEG[0]
+ Tile_X0Y0_E2BEG[1] Tile_X0Y0_E2BEG[2] Tile_X0Y0_E2BEG[3] Tile_X0Y0_E2BEG[4] Tile_X0Y0_E2BEG[5]
+ Tile_X0Y0_E2BEG[6] Tile_X0Y0_E2BEG[7] Tile_X0Y0_E2BEGb[0] Tile_X0Y0_E2BEGb[1] Tile_X0Y0_E2BEGb[2]
+ Tile_X0Y0_E2BEGb[3] Tile_X0Y0_E2BEGb[4] Tile_X0Y0_E2BEGb[5] Tile_X0Y0_E2BEGb[6]
+ Tile_X0Y0_E2BEGb[7] Tile_X0Y0_E2END[0] Tile_X0Y0_E2END[1] Tile_X0Y0_E2END[2] Tile_X0Y0_E2END[3]
+ Tile_X0Y0_E2END[4] Tile_X0Y0_E2END[5] Tile_X0Y0_E2END[6] Tile_X0Y0_E2END[7] Tile_X0Y0_E2MID[0]
+ Tile_X0Y0_E2MID[1] Tile_X0Y0_E2MID[2] Tile_X0Y0_E2MID[3] Tile_X0Y0_E2MID[4] Tile_X0Y0_E2MID[5]
+ Tile_X0Y0_E2MID[6] Tile_X0Y0_E2MID[7] Tile_X0Y0_E6BEG[0] Tile_X0Y0_E6BEG[10] Tile_X0Y0_E6BEG[11]
+ Tile_X0Y0_E6BEG[1] Tile_X0Y0_E6BEG[2] Tile_X0Y0_E6BEG[3] Tile_X0Y0_E6BEG[4] Tile_X0Y0_E6BEG[5]
+ Tile_X0Y0_E6BEG[6] Tile_X0Y0_E6BEG[7] Tile_X0Y0_E6BEG[8] Tile_X0Y0_E6BEG[9] Tile_X0Y0_E6END[0]
+ Tile_X0Y0_E6END[10] Tile_X0Y0_E6END[11] Tile_X0Y0_E6END[1] Tile_X0Y0_E6END[2] Tile_X0Y0_E6END[3]
+ Tile_X0Y0_E6END[4] Tile_X0Y0_E6END[5] Tile_X0Y0_E6END[6] Tile_X0Y0_E6END[7] Tile_X0Y0_E6END[8]
+ Tile_X0Y0_E6END[9] Tile_X0Y0_EE4BEG[0] Tile_X0Y0_EE4BEG[10] Tile_X0Y0_EE4BEG[11]
+ Tile_X0Y0_EE4BEG[12] Tile_X0Y0_EE4BEG[13] Tile_X0Y0_EE4BEG[14] Tile_X0Y0_EE4BEG[15]
+ Tile_X0Y0_EE4BEG[1] Tile_X0Y0_EE4BEG[2] Tile_X0Y0_EE4BEG[3] Tile_X0Y0_EE4BEG[4]
+ Tile_X0Y0_EE4BEG[5] Tile_X0Y0_EE4BEG[6] Tile_X0Y0_EE4BEG[7] Tile_X0Y0_EE4BEG[8]
+ Tile_X0Y0_EE4BEG[9] Tile_X0Y0_EE4END[0] Tile_X0Y0_EE4END[10] Tile_X0Y0_EE4END[11]
+ Tile_X0Y0_EE4END[12] Tile_X0Y0_EE4END[13] Tile_X0Y0_EE4END[14] Tile_X0Y0_EE4END[15]
+ Tile_X0Y0_EE4END[1] Tile_X0Y0_EE4END[2] Tile_X0Y0_EE4END[3] Tile_X0Y0_EE4END[4]
+ Tile_X0Y0_EE4END[5] Tile_X0Y0_EE4END[6] Tile_X0Y0_EE4END[7] Tile_X0Y0_EE4END[8]
+ Tile_X0Y0_EE4END[9] Tile_X0Y0_FrameData[0] Tile_X0Y0_FrameData[10] Tile_X0Y0_FrameData[11]
+ Tile_X0Y0_FrameData[12] Tile_X0Y0_FrameData[13] Tile_X0Y0_FrameData[14] Tile_X0Y0_FrameData[15]
+ Tile_X0Y0_FrameData[16] Tile_X0Y0_FrameData[17] Tile_X0Y0_FrameData[18] Tile_X0Y0_FrameData[19]
+ Tile_X0Y0_FrameData[1] Tile_X0Y0_FrameData[20] Tile_X0Y0_FrameData[21] Tile_X0Y0_FrameData[22]
+ Tile_X0Y0_FrameData[23] Tile_X0Y0_FrameData[24] Tile_X0Y0_FrameData[25] Tile_X0Y0_FrameData[26]
+ Tile_X0Y0_FrameData[27] Tile_X0Y0_FrameData[28] Tile_X0Y0_FrameData[29] Tile_X0Y0_FrameData[2]
+ Tile_X0Y0_FrameData[30] Tile_X0Y0_FrameData[31] Tile_X0Y0_FrameData[3] Tile_X0Y0_FrameData[4]
+ Tile_X0Y0_FrameData[5] Tile_X0Y0_FrameData[6] Tile_X0Y0_FrameData[7] Tile_X0Y0_FrameData[8]
+ Tile_X0Y0_FrameData[9] Tile_X0Y0_FrameData_O[0] Tile_X0Y0_FrameData_O[10] Tile_X0Y0_FrameData_O[11]
+ Tile_X0Y0_FrameData_O[12] Tile_X0Y0_FrameData_O[13] Tile_X0Y0_FrameData_O[14] Tile_X0Y0_FrameData_O[15]
+ Tile_X0Y0_FrameData_O[16] Tile_X0Y0_FrameData_O[17] Tile_X0Y0_FrameData_O[18] Tile_X0Y0_FrameData_O[19]
+ Tile_X0Y0_FrameData_O[1] Tile_X0Y0_FrameData_O[20] Tile_X0Y0_FrameData_O[21] Tile_X0Y0_FrameData_O[22]
+ Tile_X0Y0_FrameData_O[23] Tile_X0Y0_FrameData_O[24] Tile_X0Y0_FrameData_O[25] Tile_X0Y0_FrameData_O[26]
+ Tile_X0Y0_FrameData_O[27] Tile_X0Y0_FrameData_O[28] Tile_X0Y0_FrameData_O[29] Tile_X0Y0_FrameData_O[2]
+ Tile_X0Y0_FrameData_O[30] Tile_X0Y0_FrameData_O[31] Tile_X0Y0_FrameData_O[3] Tile_X0Y0_FrameData_O[4]
+ Tile_X0Y0_FrameData_O[5] Tile_X0Y0_FrameData_O[6] Tile_X0Y0_FrameData_O[7] Tile_X0Y0_FrameData_O[8]
+ Tile_X0Y0_FrameData_O[9] Tile_X0Y0_FrameStrobe_O[0] Tile_X0Y0_FrameStrobe_O[10]
+ Tile_X0Y0_FrameStrobe_O[11] Tile_X0Y0_FrameStrobe_O[12] Tile_X0Y0_FrameStrobe_O[13]
+ Tile_X0Y0_FrameStrobe_O[14] Tile_X0Y0_FrameStrobe_O[15] Tile_X0Y0_FrameStrobe_O[16]
+ Tile_X0Y0_FrameStrobe_O[17] Tile_X0Y0_FrameStrobe_O[18] Tile_X0Y0_FrameStrobe_O[19]
+ Tile_X0Y0_FrameStrobe_O[1] Tile_X0Y0_FrameStrobe_O[2] Tile_X0Y0_FrameStrobe_O[3]
+ Tile_X0Y0_FrameStrobe_O[4] Tile_X0Y0_FrameStrobe_O[5] Tile_X0Y0_FrameStrobe_O[6]
+ Tile_X0Y0_FrameStrobe_O[7] Tile_X0Y0_FrameStrobe_O[8] Tile_X0Y0_FrameStrobe_O[9]
+ Tile_X0Y0_N1BEG[0] Tile_X0Y0_N1BEG[1] Tile_X0Y0_N1BEG[2] Tile_X0Y0_N1BEG[3] Tile_X0Y0_N2BEG[0]
+ Tile_X0Y0_N2BEG[1] Tile_X0Y0_N2BEG[2] Tile_X0Y0_N2BEG[3] Tile_X0Y0_N2BEG[4] Tile_X0Y0_N2BEG[5]
+ Tile_X0Y0_N2BEG[6] Tile_X0Y0_N2BEG[7] Tile_X0Y0_N2BEGb[0] Tile_X0Y0_N2BEGb[1] Tile_X0Y0_N2BEGb[2]
+ Tile_X0Y0_N2BEGb[3] Tile_X0Y0_N2BEGb[4] Tile_X0Y0_N2BEGb[5] Tile_X0Y0_N2BEGb[6]
+ Tile_X0Y0_N2BEGb[7] Tile_X0Y0_N4BEG[0] Tile_X0Y0_N4BEG[10] Tile_X0Y0_N4BEG[11] Tile_X0Y0_N4BEG[12]
+ Tile_X0Y0_N4BEG[13] Tile_X0Y0_N4BEG[14] Tile_X0Y0_N4BEG[15] Tile_X0Y0_N4BEG[1] Tile_X0Y0_N4BEG[2]
+ Tile_X0Y0_N4BEG[3] Tile_X0Y0_N4BEG[4] Tile_X0Y0_N4BEG[5] Tile_X0Y0_N4BEG[6] Tile_X0Y0_N4BEG[7]
+ Tile_X0Y0_N4BEG[8] Tile_X0Y0_N4BEG[9] Tile_X0Y0_NN4BEG[0] Tile_X0Y0_NN4BEG[10] Tile_X0Y0_NN4BEG[11]
+ Tile_X0Y0_NN4BEG[12] Tile_X0Y0_NN4BEG[13] Tile_X0Y0_NN4BEG[14] Tile_X0Y0_NN4BEG[15]
+ Tile_X0Y0_NN4BEG[1] Tile_X0Y0_NN4BEG[2] Tile_X0Y0_NN4BEG[3] Tile_X0Y0_NN4BEG[4]
+ Tile_X0Y0_NN4BEG[5] Tile_X0Y0_NN4BEG[6] Tile_X0Y0_NN4BEG[7] Tile_X0Y0_NN4BEG[8]
+ Tile_X0Y0_NN4BEG[9] Tile_X0Y0_S1END[0] Tile_X0Y0_S1END[1] Tile_X0Y0_S1END[2] Tile_X0Y0_S1END[3]
+ Tile_X0Y0_S2END[0] Tile_X0Y0_S2END[1] Tile_X0Y0_S2END[2] Tile_X0Y0_S2END[3] Tile_X0Y0_S2END[4]
+ Tile_X0Y0_S2END[5] Tile_X0Y0_S2END[6] Tile_X0Y0_S2END[7] Tile_X0Y0_S2MID[0] Tile_X0Y0_S2MID[1]
+ Tile_X0Y0_S2MID[2] Tile_X0Y0_S2MID[3] Tile_X0Y0_S2MID[4] Tile_X0Y0_S2MID[5] Tile_X0Y0_S2MID[6]
+ Tile_X0Y0_S2MID[7] Tile_X0Y0_S4END[0] Tile_X0Y0_S4END[10] Tile_X0Y0_S4END[11] Tile_X0Y0_S4END[12]
+ Tile_X0Y0_S4END[13] Tile_X0Y0_S4END[14] Tile_X0Y0_S4END[15] Tile_X0Y0_S4END[1] Tile_X0Y0_S4END[2]
+ Tile_X0Y0_S4END[3] Tile_X0Y0_S4END[4] Tile_X0Y0_S4END[5] Tile_X0Y0_S4END[6] Tile_X0Y0_S4END[7]
+ Tile_X0Y0_S4END[8] Tile_X0Y0_S4END[9] Tile_X0Y0_SS4END[0] Tile_X0Y0_SS4END[10] Tile_X0Y0_SS4END[11]
+ Tile_X0Y0_SS4END[12] Tile_X0Y0_SS4END[13] Tile_X0Y0_SS4END[14] Tile_X0Y0_SS4END[15]
+ Tile_X0Y0_SS4END[1] Tile_X0Y0_SS4END[2] Tile_X0Y0_SS4END[3] Tile_X0Y0_SS4END[4]
+ Tile_X0Y0_SS4END[5] Tile_X0Y0_SS4END[6] Tile_X0Y0_SS4END[7] Tile_X0Y0_SS4END[8]
+ Tile_X0Y0_SS4END[9] Tile_X0Y0_UserCLKo Tile_X0Y0_W1BEG[0] Tile_X0Y0_W1BEG[1] Tile_X0Y0_W1BEG[2]
+ Tile_X0Y0_W1BEG[3] Tile_X0Y0_W1END[0] Tile_X0Y0_W1END[1] Tile_X0Y0_W1END[2] Tile_X0Y0_W1END[3]
+ Tile_X0Y0_W2BEG[0] Tile_X0Y0_W2BEG[1] Tile_X0Y0_W2BEG[2] Tile_X0Y0_W2BEG[3] Tile_X0Y0_W2BEG[4]
+ Tile_X0Y0_W2BEG[5] Tile_X0Y0_W2BEG[6] Tile_X0Y0_W2BEG[7] Tile_X0Y0_W2BEGb[0] Tile_X0Y0_W2BEGb[1]
+ Tile_X0Y0_W2BEGb[2] Tile_X0Y0_W2BEGb[3] Tile_X0Y0_W2BEGb[4] Tile_X0Y0_W2BEGb[5]
+ Tile_X0Y0_W2BEGb[6] Tile_X0Y0_W2BEGb[7] Tile_X0Y0_W2END[0] Tile_X0Y0_W2END[1] Tile_X0Y0_W2END[2]
+ Tile_X0Y0_W2END[3] Tile_X0Y0_W2END[4] Tile_X0Y0_W2END[5] Tile_X0Y0_W2END[6] Tile_X0Y0_W2END[7]
+ Tile_X0Y0_W2MID[0] Tile_X0Y0_W2MID[1] Tile_X0Y0_W2MID[2] Tile_X0Y0_W2MID[3] Tile_X0Y0_W2MID[4]
+ Tile_X0Y0_W2MID[5] Tile_X0Y0_W2MID[6] Tile_X0Y0_W2MID[7] Tile_X0Y0_W6BEG[0] Tile_X0Y0_W6BEG[10]
+ Tile_X0Y0_W6BEG[11] Tile_X0Y0_W6BEG[1] Tile_X0Y0_W6BEG[2] Tile_X0Y0_W6BEG[3] Tile_X0Y0_W6BEG[4]
+ Tile_X0Y0_W6BEG[5] Tile_X0Y0_W6BEG[6] Tile_X0Y0_W6BEG[7] Tile_X0Y0_W6BEG[8] Tile_X0Y0_W6BEG[9]
+ Tile_X0Y0_W6END[0] Tile_X0Y0_W6END[10] Tile_X0Y0_W6END[11] Tile_X0Y0_W6END[1] Tile_X0Y0_W6END[2]
+ Tile_X0Y0_W6END[3] Tile_X0Y0_W6END[4] Tile_X0Y0_W6END[5] Tile_X0Y0_W6END[6] Tile_X0Y0_W6END[7]
+ Tile_X0Y0_W6END[8] Tile_X0Y0_W6END[9] Tile_X0Y0_WW4BEG[0] Tile_X0Y0_WW4BEG[10] Tile_X0Y0_WW4BEG[11]
+ Tile_X0Y0_WW4BEG[12] Tile_X0Y0_WW4BEG[13] Tile_X0Y0_WW4BEG[14] Tile_X0Y0_WW4BEG[15]
+ Tile_X0Y0_WW4BEG[1] Tile_X0Y0_WW4BEG[2] Tile_X0Y0_WW4BEG[3] Tile_X0Y0_WW4BEG[4]
+ Tile_X0Y0_WW4BEG[5] Tile_X0Y0_WW4BEG[6] Tile_X0Y0_WW4BEG[7] Tile_X0Y0_WW4BEG[8]
+ Tile_X0Y0_WW4BEG[9] Tile_X0Y0_WW4END[0] Tile_X0Y0_WW4END[10] Tile_X0Y0_WW4END[11]
+ Tile_X0Y0_WW4END[12] Tile_X0Y0_WW4END[13] Tile_X0Y0_WW4END[14] Tile_X0Y0_WW4END[15]
+ Tile_X0Y0_WW4END[1] Tile_X0Y0_WW4END[2] Tile_X0Y0_WW4END[3] Tile_X0Y0_WW4END[4]
+ Tile_X0Y0_WW4END[5] Tile_X0Y0_WW4END[6] Tile_X0Y0_WW4END[7] Tile_X0Y0_WW4END[8]
+ Tile_X0Y0_WW4END[9] Tile_X0Y1_E1BEG[0] Tile_X0Y1_E1BEG[1] Tile_X0Y1_E1BEG[2] Tile_X0Y1_E1BEG[3]
+ Tile_X0Y1_E1END[0] Tile_X0Y1_E1END[1] Tile_X0Y1_E1END[2] Tile_X0Y1_E1END[3] Tile_X0Y1_E2BEG[0]
+ Tile_X0Y1_E2BEG[1] Tile_X0Y1_E2BEG[2] Tile_X0Y1_E2BEG[3] Tile_X0Y1_E2BEG[4] Tile_X0Y1_E2BEG[5]
+ Tile_X0Y1_E2BEG[6] Tile_X0Y1_E2BEG[7] Tile_X0Y1_E2BEGb[0] Tile_X0Y1_E2BEGb[1] Tile_X0Y1_E2BEGb[2]
+ Tile_X0Y1_E2BEGb[3] Tile_X0Y1_E2BEGb[4] Tile_X0Y1_E2BEGb[5] Tile_X0Y1_E2BEGb[6]
+ Tile_X0Y1_E2BEGb[7] Tile_X0Y1_E2END[0] Tile_X0Y1_E2END[1] Tile_X0Y1_E2END[2] Tile_X0Y1_E2END[3]
+ Tile_X0Y1_E2END[4] Tile_X0Y1_E2END[5] Tile_X0Y1_E2END[6] Tile_X0Y1_E2END[7] Tile_X0Y1_E2MID[0]
+ Tile_X0Y1_E2MID[1] Tile_X0Y1_E2MID[2] Tile_X0Y1_E2MID[3] Tile_X0Y1_E2MID[4] Tile_X0Y1_E2MID[5]
+ Tile_X0Y1_E2MID[6] Tile_X0Y1_E2MID[7] Tile_X0Y1_E6BEG[0] Tile_X0Y1_E6BEG[10] Tile_X0Y1_E6BEG[11]
+ Tile_X0Y1_E6BEG[1] Tile_X0Y1_E6BEG[2] Tile_X0Y1_E6BEG[3] Tile_X0Y1_E6BEG[4] Tile_X0Y1_E6BEG[5]
+ Tile_X0Y1_E6BEG[6] Tile_X0Y1_E6BEG[7] Tile_X0Y1_E6BEG[8] Tile_X0Y1_E6BEG[9] Tile_X0Y1_E6END[0]
+ Tile_X0Y1_E6END[10] Tile_X0Y1_E6END[11] Tile_X0Y1_E6END[1] Tile_X0Y1_E6END[2] Tile_X0Y1_E6END[3]
+ Tile_X0Y1_E6END[4] Tile_X0Y1_E6END[5] Tile_X0Y1_E6END[6] Tile_X0Y1_E6END[7] Tile_X0Y1_E6END[8]
+ Tile_X0Y1_E6END[9] Tile_X0Y1_EE4BEG[0] Tile_X0Y1_EE4BEG[10] Tile_X0Y1_EE4BEG[11]
+ Tile_X0Y1_EE4BEG[12] Tile_X0Y1_EE4BEG[13] Tile_X0Y1_EE4BEG[14] Tile_X0Y1_EE4BEG[15]
+ Tile_X0Y1_EE4BEG[1] Tile_X0Y1_EE4BEG[2] Tile_X0Y1_EE4BEG[3] Tile_X0Y1_EE4BEG[4]
+ Tile_X0Y1_EE4BEG[5] Tile_X0Y1_EE4BEG[6] Tile_X0Y1_EE4BEG[7] Tile_X0Y1_EE4BEG[8]
+ Tile_X0Y1_EE4BEG[9] Tile_X0Y1_EE4END[0] Tile_X0Y1_EE4END[10] Tile_X0Y1_EE4END[11]
+ Tile_X0Y1_EE4END[12] Tile_X0Y1_EE4END[13] Tile_X0Y1_EE4END[14] Tile_X0Y1_EE4END[15]
+ Tile_X0Y1_EE4END[1] Tile_X0Y1_EE4END[2] Tile_X0Y1_EE4END[3] Tile_X0Y1_EE4END[4]
+ Tile_X0Y1_EE4END[5] Tile_X0Y1_EE4END[6] Tile_X0Y1_EE4END[7] Tile_X0Y1_EE4END[8]
+ Tile_X0Y1_EE4END[9] Tile_X0Y1_FrameData[0] Tile_X0Y1_FrameData[10] Tile_X0Y1_FrameData[11]
+ Tile_X0Y1_FrameData[12] Tile_X0Y1_FrameData[13] Tile_X0Y1_FrameData[14] Tile_X0Y1_FrameData[15]
+ Tile_X0Y1_FrameData[16] Tile_X0Y1_FrameData[17] Tile_X0Y1_FrameData[18] Tile_X0Y1_FrameData[19]
+ Tile_X0Y1_FrameData[1] Tile_X0Y1_FrameData[20] Tile_X0Y1_FrameData[21] Tile_X0Y1_FrameData[22]
+ Tile_X0Y1_FrameData[23] Tile_X0Y1_FrameData[24] Tile_X0Y1_FrameData[25] Tile_X0Y1_FrameData[26]
+ Tile_X0Y1_FrameData[27] Tile_X0Y1_FrameData[28] Tile_X0Y1_FrameData[29] Tile_X0Y1_FrameData[2]
+ Tile_X0Y1_FrameData[30] Tile_X0Y1_FrameData[31] Tile_X0Y1_FrameData[3] Tile_X0Y1_FrameData[4]
+ Tile_X0Y1_FrameData[5] Tile_X0Y1_FrameData[6] Tile_X0Y1_FrameData[7] Tile_X0Y1_FrameData[8]
+ Tile_X0Y1_FrameData[9] Tile_X0Y1_FrameData_O[0] Tile_X0Y1_FrameData_O[10] Tile_X0Y1_FrameData_O[11]
+ Tile_X0Y1_FrameData_O[12] Tile_X0Y1_FrameData_O[13] Tile_X0Y1_FrameData_O[14] Tile_X0Y1_FrameData_O[15]
+ Tile_X0Y1_FrameData_O[16] Tile_X0Y1_FrameData_O[17] Tile_X0Y1_FrameData_O[18] Tile_X0Y1_FrameData_O[19]
+ Tile_X0Y1_FrameData_O[1] Tile_X0Y1_FrameData_O[20] Tile_X0Y1_FrameData_O[21] Tile_X0Y1_FrameData_O[22]
+ Tile_X0Y1_FrameData_O[23] Tile_X0Y1_FrameData_O[24] Tile_X0Y1_FrameData_O[25] Tile_X0Y1_FrameData_O[26]
+ Tile_X0Y1_FrameData_O[27] Tile_X0Y1_FrameData_O[28] Tile_X0Y1_FrameData_O[29] Tile_X0Y1_FrameData_O[2]
+ Tile_X0Y1_FrameData_O[30] Tile_X0Y1_FrameData_O[31] Tile_X0Y1_FrameData_O[3] Tile_X0Y1_FrameData_O[4]
+ Tile_X0Y1_FrameData_O[5] Tile_X0Y1_FrameData_O[6] Tile_X0Y1_FrameData_O[7] Tile_X0Y1_FrameData_O[8]
+ Tile_X0Y1_FrameData_O[9] Tile_X0Y1_FrameStrobe[0] Tile_X0Y1_FrameStrobe[10] Tile_X0Y1_FrameStrobe[11]
+ Tile_X0Y1_FrameStrobe[12] Tile_X0Y1_FrameStrobe[13] Tile_X0Y1_FrameStrobe[14] Tile_X0Y1_FrameStrobe[15]
+ Tile_X0Y1_FrameStrobe[16] Tile_X0Y1_FrameStrobe[17] Tile_X0Y1_FrameStrobe[18] Tile_X0Y1_FrameStrobe[19]
+ Tile_X0Y1_FrameStrobe[1] Tile_X0Y1_FrameStrobe[2] Tile_X0Y1_FrameStrobe[3] Tile_X0Y1_FrameStrobe[4]
+ Tile_X0Y1_FrameStrobe[5] Tile_X0Y1_FrameStrobe[6] Tile_X0Y1_FrameStrobe[7] Tile_X0Y1_FrameStrobe[8]
+ Tile_X0Y1_FrameStrobe[9] Tile_X0Y1_N1END[0] Tile_X0Y1_N1END[1] Tile_X0Y1_N1END[2]
+ Tile_X0Y1_N1END[3] Tile_X0Y1_N2END[0] Tile_X0Y1_N2END[1] Tile_X0Y1_N2END[2] Tile_X0Y1_N2END[3]
+ Tile_X0Y1_N2END[4] Tile_X0Y1_N2END[5] Tile_X0Y1_N2END[6] Tile_X0Y1_N2END[7] Tile_X0Y1_N2MID[0]
+ Tile_X0Y1_N2MID[1] Tile_X0Y1_N2MID[2] Tile_X0Y1_N2MID[3] Tile_X0Y1_N2MID[4] Tile_X0Y1_N2MID[5]
+ Tile_X0Y1_N2MID[6] Tile_X0Y1_N2MID[7] Tile_X0Y1_N4END[0] Tile_X0Y1_N4END[10] Tile_X0Y1_N4END[11]
+ Tile_X0Y1_N4END[12] Tile_X0Y1_N4END[13] Tile_X0Y1_N4END[14] Tile_X0Y1_N4END[15]
+ Tile_X0Y1_N4END[1] Tile_X0Y1_N4END[2] Tile_X0Y1_N4END[3] Tile_X0Y1_N4END[4] Tile_X0Y1_N4END[5]
+ Tile_X0Y1_N4END[6] Tile_X0Y1_N4END[7] Tile_X0Y1_N4END[8] Tile_X0Y1_N4END[9] Tile_X0Y1_NN4END[0]
+ Tile_X0Y1_NN4END[10] Tile_X0Y1_NN4END[11] Tile_X0Y1_NN4END[12] Tile_X0Y1_NN4END[13]
+ Tile_X0Y1_NN4END[14] Tile_X0Y1_NN4END[15] Tile_X0Y1_NN4END[1] Tile_X0Y1_NN4END[2]
+ Tile_X0Y1_NN4END[3] Tile_X0Y1_NN4END[4] Tile_X0Y1_NN4END[5] Tile_X0Y1_NN4END[6]
+ Tile_X0Y1_NN4END[7] Tile_X0Y1_NN4END[8] Tile_X0Y1_NN4END[9] Tile_X0Y1_S1BEG[0] Tile_X0Y1_S1BEG[1]
+ Tile_X0Y1_S1BEG[2] Tile_X0Y1_S1BEG[3] Tile_X0Y1_S2BEG[0] Tile_X0Y1_S2BEG[1] Tile_X0Y1_S2BEG[2]
+ Tile_X0Y1_S2BEG[3] Tile_X0Y1_S2BEG[4] Tile_X0Y1_S2BEG[5] Tile_X0Y1_S2BEG[6] Tile_X0Y1_S2BEG[7]
+ Tile_X0Y1_S2BEGb[0] Tile_X0Y1_S2BEGb[1] Tile_X0Y1_S2BEGb[2] Tile_X0Y1_S2BEGb[3]
+ Tile_X0Y1_S2BEGb[4] Tile_X0Y1_S2BEGb[5] Tile_X0Y1_S2BEGb[6] Tile_X0Y1_S2BEGb[7]
+ Tile_X0Y1_S4BEG[0] Tile_X0Y1_S4BEG[10] Tile_X0Y1_S4BEG[11] Tile_X0Y1_S4BEG[12] Tile_X0Y1_S4BEG[13]
+ Tile_X0Y1_S4BEG[14] Tile_X0Y1_S4BEG[15] Tile_X0Y1_S4BEG[1] Tile_X0Y1_S4BEG[2] Tile_X0Y1_S4BEG[3]
+ Tile_X0Y1_S4BEG[4] Tile_X0Y1_S4BEG[5] Tile_X0Y1_S4BEG[6] Tile_X0Y1_S4BEG[7] Tile_X0Y1_S4BEG[8]
+ Tile_X0Y1_S4BEG[9] Tile_X0Y1_SS4BEG[0] Tile_X0Y1_SS4BEG[10] Tile_X0Y1_SS4BEG[11]
+ Tile_X0Y1_SS4BEG[12] Tile_X0Y1_SS4BEG[13] Tile_X0Y1_SS4BEG[14] Tile_X0Y1_SS4BEG[15]
+ Tile_X0Y1_SS4BEG[1] Tile_X0Y1_SS4BEG[2] Tile_X0Y1_SS4BEG[3] Tile_X0Y1_SS4BEG[4]
+ Tile_X0Y1_SS4BEG[5] Tile_X0Y1_SS4BEG[6] Tile_X0Y1_SS4BEG[7] Tile_X0Y1_SS4BEG[8]
+ Tile_X0Y1_SS4BEG[9] Tile_X0Y1_UserCLK Tile_X0Y1_W1BEG[0] Tile_X0Y1_W1BEG[1] Tile_X0Y1_W1BEG[2]
+ Tile_X0Y1_W1BEG[3] Tile_X0Y1_W1END[0] Tile_X0Y1_W1END[1] Tile_X0Y1_W1END[2] Tile_X0Y1_W1END[3]
+ Tile_X0Y1_W2BEG[0] Tile_X0Y1_W2BEG[1] Tile_X0Y1_W2BEG[2] Tile_X0Y1_W2BEG[3] Tile_X0Y1_W2BEG[4]
+ Tile_X0Y1_W2BEG[5] Tile_X0Y1_W2BEG[6] Tile_X0Y1_W2BEG[7] Tile_X0Y1_W2BEGb[0] Tile_X0Y1_W2BEGb[1]
+ Tile_X0Y1_W2BEGb[2] Tile_X0Y1_W2BEGb[3] Tile_X0Y1_W2BEGb[4] Tile_X0Y1_W2BEGb[5]
+ Tile_X0Y1_W2BEGb[6] Tile_X0Y1_W2BEGb[7] Tile_X0Y1_W2END[0] Tile_X0Y1_W2END[1] Tile_X0Y1_W2END[2]
+ Tile_X0Y1_W2END[3] Tile_X0Y1_W2END[4] Tile_X0Y1_W2END[5] Tile_X0Y1_W2END[6] Tile_X0Y1_W2END[7]
+ Tile_X0Y1_W2MID[0] Tile_X0Y1_W2MID[1] Tile_X0Y1_W2MID[2] Tile_X0Y1_W2MID[3] Tile_X0Y1_W2MID[4]
+ Tile_X0Y1_W2MID[5] Tile_X0Y1_W2MID[6] Tile_X0Y1_W2MID[7] Tile_X0Y1_W6BEG[0] Tile_X0Y1_W6BEG[10]
+ Tile_X0Y1_W6BEG[11] Tile_X0Y1_W6BEG[1] Tile_X0Y1_W6BEG[2] Tile_X0Y1_W6BEG[3] Tile_X0Y1_W6BEG[4]
+ Tile_X0Y1_W6BEG[5] Tile_X0Y1_W6BEG[6] Tile_X0Y1_W6BEG[7] Tile_X0Y1_W6BEG[8] Tile_X0Y1_W6BEG[9]
+ Tile_X0Y1_W6END[0] Tile_X0Y1_W6END[10] Tile_X0Y1_W6END[11] Tile_X0Y1_W6END[1] Tile_X0Y1_W6END[2]
+ Tile_X0Y1_W6END[3] Tile_X0Y1_W6END[4] Tile_X0Y1_W6END[5] Tile_X0Y1_W6END[6] Tile_X0Y1_W6END[7]
+ Tile_X0Y1_W6END[8] Tile_X0Y1_W6END[9] Tile_X0Y1_WW4BEG[0] Tile_X0Y1_WW4BEG[10] Tile_X0Y1_WW4BEG[11]
+ Tile_X0Y1_WW4BEG[12] Tile_X0Y1_WW4BEG[13] Tile_X0Y1_WW4BEG[14] Tile_X0Y1_WW4BEG[15]
+ Tile_X0Y1_WW4BEG[1] Tile_X0Y1_WW4BEG[2] Tile_X0Y1_WW4BEG[3] Tile_X0Y1_WW4BEG[4]
+ Tile_X0Y1_WW4BEG[5] Tile_X0Y1_WW4BEG[6] Tile_X0Y1_WW4BEG[7] Tile_X0Y1_WW4BEG[8]
+ Tile_X0Y1_WW4BEG[9] Tile_X0Y1_WW4END[0] Tile_X0Y1_WW4END[10] Tile_X0Y1_WW4END[11]
+ Tile_X0Y1_WW4END[12] Tile_X0Y1_WW4END[13] Tile_X0Y1_WW4END[14] Tile_X0Y1_WW4END[15]
+ Tile_X0Y1_WW4END[1] Tile_X0Y1_WW4END[2] Tile_X0Y1_WW4END[3] Tile_X0Y1_WW4END[4]
+ Tile_X0Y1_WW4END[5] Tile_X0Y1_WW4END[6] Tile_X0Y1_WW4END[7] Tile_X0Y1_WW4END[8]
+ Tile_X0Y1_WW4END[9] VGND VPWR
X_3155_ Tile_X0Y1_DSP_bot.Inst_DSP_bot_ConfigMem.Inst_frame9_bit23.Q VPWR _1211_ VGND
+ Tile_X0Y1_DSP_bot.Inst_DSP_bot_ConfigMem.Inst_frame9_bit22.Q _1210_ sg13g2_o21ai_1
X_3086_ _1144_ VPWR _1145_ VGND Tile_X0Y1_DSP_bot.Inst_DSP_bot_ConfigMem.Inst_frame2_bit10.Q
+ _1143_ sg13g2_o21ai_1
X_3988_ net1701 net681 net1709 net1 net4 Tile_X0Y0_DSP_top.Inst_DSP_top_ConfigMem.Inst_frame1_bit29.Q
+ _1993_ VPWR VGND sg13g2_mux4_1
X_5727_ net1859 net1739 Tile_X0Y1_DSP_bot.Inst_DSP_bot_ConfigMem.Inst_frame7_bit8.Q
+ VPWR VGND sg13g2_dlhq_1
X_2939_ Tile_X0Y0_DSP_top.Inst_DSP_top_ConfigMem.Inst_frame7_bit1.Q Tile_X0Y0_DSP_top.Inst_DSP_top_switch_matrix.N2BEGb6
+ net79 net44 Tile_X0Y0_DSP_top.Inst_DSP_top_switch_matrix.JN2BEG3 Tile_X0Y0_DSP_top.Inst_DSP_top_ConfigMem.Inst_frame7_bit0.Q
+ _1004_ VPWR VGND sg13g2_mux4_1
X_5658_ net1910 net1758 Tile_X0Y1_DSP_bot.Inst_DSP_bot_ConfigMem.Inst_frame5_bit13.Q
+ VPWR VGND sg13g2_dlhq_1
XFILLER_117_11 VPWR VGND sg13g2_fill_1
X_4609_ VPWR _0166_ Tile_X0Y1_DSP_bot.Inst_DSP_bot_ConfigMem.Inst_frame12_bit23.Q
+ VGND sg13g2_inv_1
X_5589_ net1901 net1782 Tile_X0Y1_DSP_bot.Inst_DSP_bot_ConfigMem.Inst_frame3_bit18.Q
+ VPWR VGND sg13g2_dlhq_1
Xfanout1807 net1808 net1807 VPWR VGND sg13g2_buf_1
Xfanout1829 net1830 net1829 VPWR VGND sg13g2_buf_1
Xfanout1818 net1819 net1818 VPWR VGND sg13g2_buf_1
Xrebuffer7 net634 net616 VPWR VGND sg13g2_dlygate4sd1_1
XFILLER_76_350 VPWR VGND sg13g2_fill_2
XFILLER_36_214 VPWR VGND sg13g2_fill_2
XFILLER_36_236 VPWR VGND sg13g2_fill_1
X_4960_ _0502_ VPWR _0503_ VGND net1695 net32 sg13g2_o21ai_1
X_4891_ _0436_ VPWR _0437_ VGND Tile_X0Y0_DSP_top.Inst_DSP_top_ConfigMem.Inst_frame6_bit8.Q
+ Tile_X0Y0_DSP_top.Inst_DSP_top_switch_matrix.N2BEGb7 sg13g2_o21ai_1
X_3911_ Tile_X0Y0_DSP_top.Inst_DSP_top_ConfigMem.Inst_frame8_bit21.Q _1921_ _1922_
+ net1576 _1923_ Tile_X0Y0_DSP_top.Inst_DSP_top_ConfigMem.Inst_frame8_bit20.Q Tile_X0Y0_DSP_top.Inst_DSP_top_switch_matrix.inst_cus_mux41_buf_top2bot13.X
+ VPWR VGND sg13g2_mux4_1
X_3842_ _1173_ net697 _1869_ VPWR VGND sg13g2_nor2_2
X_3773_ net1643 _1801_ _1802_ VPWR VGND sg13g2_nor2_2
X_5512_ net1871 net1811 Tile_X0Y1_DSP_bot.Inst_DSP_bot_ConfigMem.Inst_frame1_bit31.Q
+ VPWR VGND sg13g2_dlhq_1
X_2724_ VGND VPWR net1924 Tile_X0Y1_DSP_bot.Inst_DSP_bot_ConfigMem.Inst_frame0_bit6.Q
+ _0802_ _0801_ sg13g2_a21oi_1
XFILLER_66_0 VPWR VGND sg13g2_fill_2
Xoutput401 net401 Tile_X0Y1_E6BEG[5] VPWR VGND sg13g2_buf_1
X_2655_ _0735_ VPWR _0736_ VGND Tile_X0Y1_DSP_bot.Inst_DSP_bot_ConfigMem.Inst_frame1_bit16.Q
+ net1531 sg13g2_o21ai_1
X_5443_ Tile_X0Y1_UserCLK net575 _0057_ _5443_/Q_N Tile_X0Y1_DSP_bot.Inst_MULADD.ACC\[19\]
+ VPWR VGND sg13g2_dfrbp_1
Xoutput412 net412 Tile_X0Y1_EE4BEG[15] VPWR VGND sg13g2_buf_1
Xoutput434 net434 Tile_X0Y1_FrameData_O[20] VPWR VGND sg13g2_buf_1
Xoutput423 net423 Tile_X0Y1_FrameData_O[10] VPWR VGND sg13g2_buf_1
X_5374_ net1961 net1828 Tile_X0Y0_DSP_top.Inst_DSP_top_ConfigMem.Inst_frame11_bit27.Q
+ VPWR VGND sg13g2_dlhq_1
X_2586_ _0670_ VPWR _0671_ VGND Tile_X0Y1_DSP_bot.Inst_DSP_bot_ConfigMem.Inst_frame4_bit13.Q
+ _0667_ sg13g2_o21ai_1
X_4325_ Tile_X0Y1_DSP_bot.Inst_DSP_bot_ConfigMem.Inst_frame12_bit22.Q net1711 net89
+ net149 net1544 Tile_X0Y1_DSP_bot.Inst_DSP_bot_ConfigMem.Inst_frame12_bit23.Q _2259_
+ VPWR VGND sg13g2_mux4_1
Xoutput456 net456 Tile_X0Y1_S1BEG[2] VPWR VGND sg13g2_buf_1
Xoutput467 net467 Tile_X0Y1_S2BEGb[1] VPWR VGND sg13g2_buf_1
Xoutput478 net478 Tile_X0Y1_S4BEG[13] VPWR VGND sg13g2_buf_1
Xoutput445 net445 Tile_X0Y1_FrameData_O[30] VPWR VGND sg13g2_buf_1
XFILLER_113_252 VPWR VGND sg13g2_fill_2
Xoutput489 net489 Tile_X0Y1_S4BEG[9] VPWR VGND sg13g2_buf_1
X_4256_ Tile_X0Y0_DSP_top.Inst_DSP_top_ConfigMem.Inst_frame9_bit18.Q net1589 net1523
+ net1519 net1541 Tile_X0Y0_DSP_top.Inst_DSP_top_ConfigMem.Inst_frame9_bit19.Q _2215_
+ VPWR VGND sg13g2_mux4_1
XFILLER_47_18 VPWR VGND sg13g2_fill_1
X_3207_ Tile_X0Y1_DSP_bot.Inst_DSP_bot_ConfigMem.Inst_frame3_bit16.Q net1712 net120
+ net1927 net96 Tile_X0Y1_DSP_bot.Inst_DSP_bot_ConfigMem.Inst_frame3_bit17.Q _1262_
+ VPWR VGND sg13g2_mux4_1
X_4187_ Tile_X0Y0_DSP_top.Inst_DSP_top_ConfigMem.Inst_frame11_bit31.Q net3 net1600
+ net1932 net1613 Tile_X0Y0_DSP_top.Inst_DSP_top_ConfigMem.Inst_frame11_bit30.Q _2155_
+ VPWR VGND sg13g2_mux4_1
X_3138_ VGND VPWR Tile_X0Y0_DSP_top.Inst_DSP_top_ConfigMem.Inst_frame2_bit25.Q _1194_
+ _1195_ _0120_ sg13g2_a21oi_1
XFILLER_27_225 VPWR VGND sg13g2_decap_4
XFILLER_27_203 VPWR VGND sg13g2_decap_4
XFILLER_67_383 VPWR VGND sg13g2_fill_2
X_3069_ _0127_ VPWR _1129_ VGND Tile_X0Y1_DSP_bot.Inst_DSP_bot_ConfigMem.Inst_frame2_bit18.Q
+ _1128_ sg13g2_o21ai_1
XFILLER_63_28 VPWR VGND sg13g2_decap_8
XFILLER_50_250 VPWR VGND sg13g2_fill_2
XFILLER_50_283 VPWR VGND sg13g2_fill_1
XFILLER_10_169 VPWR VGND sg13g2_fill_1
Xfanout1615 net1615 net1616 VPWR VGND sg13g2_buf_16
Xfanout1648 net1651 net1648 VPWR VGND sg13g2_buf_1
Xfanout1637 net1639 net1637 VPWR VGND sg13g2_buf_1
Xfanout1626 net1627 net1626 VPWR VGND sg13g2_buf_1
XFILLER_104_285 VPWR VGND sg13g2_fill_1
Xfanout1659 Tile_X0Y1_DSP_bot.Inst_DSP_bot_ConfigMem.Inst_frame4_bit12.Q net1659 VPWR
+ VGND sg13g2_buf_1
X_5090_ net1970 net1799 Tile_X0Y0_DSP_top.Inst_DSP_top_ConfigMem.Inst_frame2_bit23.Q
+ VPWR VGND sg13g2_dlhq_1
X_4110_ VGND VPWR net5 net1672 _2099_ _2098_ sg13g2_a21oi_1
X_4041_ VGND VPWR Tile_X0Y0_DSP_top.Inst_DSP_top_ConfigMem.Inst_frame4_bit29.Q _2044_
+ _2045_ _0157_ sg13g2_a21oi_1
XFILLER_68_158 VPWR VGND sg13g2_fill_2
X_5992_ Tile_X0Y0_EE4END[12] net219 VPWR VGND sg13g2_buf_1
X_4943_ VGND VPWR Tile_X0Y0_DSP_top.Inst_DSP_top_ConfigMem.Inst_frame6_bit7.Q _0484_
+ _0486_ _0485_ sg13g2_a21oi_1
X_4874_ VGND VPWR Tile_X0Y1_DSP_bot.Inst_DSP_bot_ConfigMem.Inst_frame4_bit29.Q _0420_
+ _0421_ _0078_ sg13g2_a21oi_1
X_3825_ VGND VPWR net37 net1678 _1854_ Tile_X0Y0_DSP_top.Inst_DSP_top_ConfigMem.Inst_frame4_bit25.Q
+ sg13g2_a21oi_1
X_3756_ _1427_ VPWR _1786_ VGND _1214_ net1548 sg13g2_o21ai_1
XFILLER_118_344 VPWR VGND sg13g2_fill_2
X_2707_ Tile_X0Y1_DSP_bot.Inst_DSP_bot_ConfigMem.Inst_frame1_bit4.Q net1528 net1542
+ net1549 net1556 Tile_X0Y1_DSP_bot.Inst_DSP_bot_ConfigMem.Inst_frame1_bit5.Q _0786_
+ VPWR VGND sg13g2_mux4_1
X_5426_ Tile_X0Y1_UserCLK net572 _0040_ _0020_ Tile_X0Y1_DSP_bot.Inst_MULADD.ACC\[2\]
+ VPWR VGND sg13g2_dfrbp_1
X_3687_ VGND VPWR net125 _0153_ _1722_ Tile_X0Y1_DSP_bot.Inst_DSP_bot_ConfigMem.Inst_frame7_bit27.Q
+ sg13g2_a21oi_1
Xoutput231 net231 Tile_X0Y0_FrameData_O[19] VPWR VGND sg13g2_buf_1
Xoutput253 net253 Tile_X0Y0_FrameStrobe_O[0] VPWR VGND sg13g2_buf_1
Xoutput242 net242 Tile_X0Y0_FrameData_O[29] VPWR VGND sg13g2_buf_1
X_2638_ Tile_X0Y0_DSP_top.Inst_DSP_top_ConfigMem.Inst_frame4_bit5.Q _0719_ _0717_
+ _0713_ _0715_ Tile_X0Y0_DSP_top.Inst_DSP_top_ConfigMem.Inst_frame4_bit6.Q _0720_
+ VPWR VGND sg13g2_mux4_1
Xoutput220 net220 Tile_X0Y0_EE4BEG[9] VPWR VGND sg13g2_buf_1
Xoutput264 net264 Tile_X0Y0_FrameStrobe_O[1] VPWR VGND sg13g2_buf_1
Xoutput275 Tile_X0Y0_DSP_top.Inst_DSP_top_switch_matrix.N1BEG2 Tile_X0Y0_N1BEG[2]
+ VPWR VGND sg13g2_buf_1
Xoutput286 net286 Tile_X0Y0_N2BEGb[1] VPWR VGND sg13g2_buf_1
X_5357_ net1994 net1839 Tile_X0Y0_DSP_top.Inst_DSP_top_ConfigMem.Inst_frame10_bit12.Q
+ VPWR VGND sg13g2_dlhq_1
X_2569_ net1682 net137 _0655_ VPWR VGND sg13g2_nor2b_1
Xoutput297 net297 Tile_X0Y0_N4BEG[13] VPWR VGND sg13g2_buf_1
X_4308_ Tile_X0Y1_DSP_bot.Inst_DSP_bot_ConfigMem.Inst_frame10_bit26.Q net1564 net693
+ Tile_X0Y1_DSP_bot.Inst_DSP_bot_switch_matrix.JS2BEG3 _0308_ Tile_X0Y1_DSP_bot.Inst_DSP_bot_ConfigMem.Inst_frame10_bit27.Q
+ Tile_X0Y1_DSP_bot.Inst_DSP_bot_switch_matrix.W1BEG0 VPWR VGND sg13g2_mux4_1
XFILLER_59_136 VPWR VGND sg13g2_decap_8
X_5288_ net1984 net1729 Tile_X0Y0_DSP_top.Inst_DSP_top_ConfigMem.Inst_frame8_bit17.Q
+ VPWR VGND sg13g2_dlhq_1
XFILLER_99_294 VPWR VGND sg13g2_fill_1
XFILLER_101_266 VPWR VGND sg13g2_decap_4
X_4239_ VGND VPWR Tile_X0Y0_DSP_top.Inst_DSP_top_ConfigMem.Inst_frame9_bit13.Q _2199_
+ _2200_ Tile_X0Y0_DSP_top.Inst_DSP_top_ConfigMem.Inst_frame9_bit14.Q sg13g2_a21oi_1
XFILLER_114_67 VPWR VGND sg13g2_fill_1
XFILLER_74_106 VPWR VGND sg13g2_fill_2
X_5456__588 VPWR VGND net588 sg13g2_tiehi
XFILLER_30_209 VPWR VGND sg13g2_decap_4
XFILLER_99_46 VPWR VGND sg13g2_fill_1
XFILLER_99_68 VPWR VGND sg13g2_fill_1
XFILLER_46_331 VPWR VGND sg13g2_fill_1
XFILLER_58_191 VPWR VGND sg13g2_fill_1
XFILLER_61_312 VPWR VGND sg13g2_fill_2
XFILLER_9_44 VPWR VGND sg13g2_fill_2
X_4590_ VPWR _0147_ Tile_X0Y1_DSP_bot.Inst_DSP_bot_ConfigMem.Inst_frame2_bit27.Q VGND
+ sg13g2_inv_1
X_3610_ VGND VPWR _1648_ _1649_ _1647_ Tile_X0Y1_DSP_bot.Inst_DSP_bot_ConfigMem.Inst_frame8_bit22.Q
+ sg13g2_a21oi_2
X_3541_ _1586_ Tile_X0Y1_DSP_bot.Inst_DSP_bot_ConfigMem.Inst_frame2_bit20.Q net1619
+ VPWR VGND sg13g2_nand2b_1