*SPEF "ieee 1481-1999"
*DESIGN "S_CPU_IRQ"
*DATE "08:49:54 Monday February 24, 2025"
*VENDOR "The OpenROAD Project"
*PROGRAM "OpenROAD"
*VERSION "87af90f72f3f9be1fdfa1d886f0dd8d8b8f34694"
*DESIGN_FLOW "NAME_SCOPE LOCAL" "PIN_CAP NONE"
*DIVIDER /
*DELIMITER :
*BUS_DELIMITER []
*T_UNIT 1 NS
*C_UNIT 1 PF
*R_UNIT 1 OHM
*L_UNIT 1 HENRY

*NAME_MAP
*1 net156
*2 FrameData[0]
*3 FrameData[10]
*4 FrameData[11]
*5 FrameData[12]
*6 FrameData[13]
*7 FrameData[14]
*8 FrameData[15]
*9 FrameData[16]
*10 FrameData[17]
*11 FrameData[18]
*12 FrameData[19]
*13 FrameData[1]
*14 FrameData[20]
*15 FrameData[21]
*16 FrameData[22]
*17 FrameData[23]
*18 FrameData[24]
*19 FrameData[25]
*20 FrameData[26]
*21 FrameData[27]
*22 FrameData[28]
*23 FrameData[29]
*24 FrameData[2]
*25 FrameData[30]
*26 FrameData[31]
*27 FrameData[3]
*28 FrameData[4]
*29 FrameData[5]
*30 FrameData[6]
*31 FrameData[7]
*32 FrameData[8]
*33 FrameData[9]
*34 FrameData_O[0]
*35 FrameData_O[10]
*36 FrameData_O[11]
*37 FrameData_O[12]
*38 FrameData_O[13]
*39 FrameData_O[14]
*40 FrameData_O[15]
*41 FrameData_O[16]
*42 FrameData_O[17]
*43 FrameData_O[18]
*44 FrameData_O[19]
*45 FrameData_O[1]
*46 FrameData_O[20]
*47 FrameData_O[21]
*48 FrameData_O[22]
*49 FrameData_O[23]
*50 FrameData_O[24]
*51 FrameData_O[25]
*52 FrameData_O[26]
*53 FrameData_O[27]
*54 FrameData_O[28]
*55 FrameData_O[29]
*56 FrameData_O[2]
*57 FrameData_O[30]
*58 FrameData_O[31]
*59 FrameData_O[3]
*60 FrameData_O[4]
*61 FrameData_O[5]
*62 FrameData_O[6]
*63 FrameData_O[7]
*64 FrameData_O[8]
*65 FrameData_O[9]
*66 FrameStrobe[0]
*67 FrameStrobe[10]
*68 FrameStrobe[11]
*69 FrameStrobe[12]
*70 FrameStrobe[13]
*71 FrameStrobe[14]
*72 FrameStrobe[15]
*73 FrameStrobe[16]
*74 FrameStrobe[17]
*75 FrameStrobe[18]
*76 FrameStrobe[19]
*77 FrameStrobe[1]
*78 FrameStrobe[2]
*79 FrameStrobe[3]
*80 FrameStrobe[4]
*81 FrameStrobe[5]
*82 FrameStrobe[6]
*83 FrameStrobe[7]
*84 FrameStrobe[8]
*85 FrameStrobe[9]
*86 FrameStrobe_O[0]
*87 FrameStrobe_O[10]
*88 FrameStrobe_O[11]
*89 FrameStrobe_O[12]
*90 FrameStrobe_O[13]
*91 FrameStrobe_O[14]
*92 FrameStrobe_O[15]
*93 FrameStrobe_O[16]
*94 FrameStrobe_O[17]
*95 FrameStrobe_O[18]
*96 FrameStrobe_O[19]
*97 FrameStrobe_O[1]
*98 FrameStrobe_O[2]
*99 FrameStrobe_O[3]
*100 FrameStrobe_O[4]
*101 FrameStrobe_O[5]
*102 FrameStrobe_O[6]
*103 FrameStrobe_O[7]
*104 FrameStrobe_O[8]
*105 FrameStrobe_O[9]
*106 IRQ_top0
*107 IRQ_top1
*108 IRQ_top2
*109 IRQ_top3
*110 N1BEG[0]
*111 N1BEG[1]
*112 N1BEG[2]
*113 N1BEG[3]
*114 N2BEG[0]
*115 N2BEG[1]
*116 N2BEG[2]
*117 N2BEG[3]
*118 N2BEG[4]
*119 N2BEG[5]
*120 N2BEG[6]
*121 N2BEG[7]
*122 N2BEGb[0]
*123 N2BEGb[1]
*124 N2BEGb[2]
*125 N2BEGb[3]
*126 N2BEGb[4]
*127 N2BEGb[5]
*128 N2BEGb[6]
*129 N2BEGb[7]
*130 N4BEG[0]
*131 N4BEG[10]
*132 N4BEG[11]
*133 N4BEG[12]
*134 N4BEG[13]
*135 N4BEG[14]
*136 N4BEG[15]
*137 N4BEG[1]
*138 N4BEG[2]
*139 N4BEG[3]
*140 N4BEG[4]
*141 N4BEG[5]
*142 N4BEG[6]
*143 N4BEG[7]
*144 N4BEG[8]
*145 N4BEG[9]
*146 NN4BEG[0]
*147 NN4BEG[10]
*148 NN4BEG[11]
*149 NN4BEG[12]
*150 NN4BEG[13]
*151 NN4BEG[14]
*152 NN4BEG[15]
*153 NN4BEG[1]
*154 NN4BEG[2]
*155 NN4BEG[3]
*156 NN4BEG[4]
*157 NN4BEG[5]
*158 NN4BEG[6]
*159 NN4BEG[7]
*160 NN4BEG[8]
*161 NN4BEG[9]
*162 S1END[0]
*163 S1END[1]
*164 S1END[2]
*165 S1END[3]
*166 S2END[0]
*167 S2END[1]
*168 S2END[2]
*169 S2END[3]
*170 S2END[4]
*171 S2END[5]
*172 S2END[6]
*173 S2END[7]
*174 S2MID[0]
*175 S2MID[1]
*176 S2MID[2]
*177 S2MID[3]
*178 S2MID[4]
*179 S2MID[5]
*180 S2MID[6]
*181 S2MID[7]
*182 S4END[0]
*183 S4END[10]
*184 S4END[11]
*185 S4END[12]
*186 S4END[13]
*187 S4END[14]
*188 S4END[15]
*189 S4END[1]
*190 S4END[2]
*191 S4END[3]
*192 S4END[4]
*193 S4END[5]
*194 S4END[6]
*195 S4END[7]
*196 S4END[8]
*197 S4END[9]
*198 SS4END[0]
*199 SS4END[10]
*200 SS4END[11]
*201 SS4END[12]
*202 SS4END[13]
*203 SS4END[14]
*204 SS4END[15]
*205 SS4END[1]
*206 SS4END[2]
*207 SS4END[3]
*208 SS4END[4]
*209 SS4END[5]
*210 SS4END[6]
*211 SS4END[7]
*212 SS4END[8]
*213 SS4END[9]
*214 UserCLK
*215 UserCLKo
*218 Inst_S_CPU_IRQ_ConfigMem\.Inst_frame0_bit20\.Q
*219 Inst_S_CPU_IRQ_ConfigMem\.Inst_frame0_bit21\.Q
*220 Inst_S_CPU_IRQ_ConfigMem\.Inst_frame0_bit22\.Q
*221 Inst_S_CPU_IRQ_ConfigMem\.Inst_frame0_bit23\.Q
*222 Inst_S_CPU_IRQ_ConfigMem\.Inst_frame0_bit24\.Q
*223 Inst_S_CPU_IRQ_ConfigMem\.Inst_frame0_bit25\.Q
*224 Inst_S_CPU_IRQ_ConfigMem\.Inst_frame0_bit26\.Q
*225 Inst_S_CPU_IRQ_ConfigMem\.Inst_frame0_bit27\.Q
*226 Inst_S_CPU_IRQ_ConfigMem\.Inst_frame0_bit28\.Q
*227 Inst_S_CPU_IRQ_ConfigMem\.Inst_frame0_bit29\.Q
*228 Inst_S_CPU_IRQ_ConfigMem\.Inst_frame0_bit30\.Q
*229 Inst_S_CPU_IRQ_ConfigMem\.Inst_frame0_bit31\.Q
*230 _000_
*231 _001_
*232 _002_
*233 _003_
*234 _004_
*235 _005_
*236 _006_
*237 _007_
*238 _008_
*239 _009_
*240 _010_
*241 _011_
*242 _012_
*243 _013_
*244 _014_
*245 _015_
*246 _016_
*247 _017_
*248 _018_
*249 _019_
*250 _020_
*251 _021_
*252 _022_
*253 _023_
*254 net1
*255 net10
*256 net100
*257 net101
*258 net102
*259 net103
*260 net104
*261 net105
*262 net106
*263 net107
*264 net108
*265 net109
*266 net11
*267 net110
*268 net111
*269 net112
*270 net113
*271 net114
*272 net115
*273 net116
*274 net117
*275 net118
*276 net119
*277 net12
*278 net120
*279 net121
*280 net122
*281 net123
*282 net124
*283 net125
*284 net126
*285 net127
*286 net128
*287 net129
*288 net13
*289 net130
*290 net131
*291 net132
*292 net133
*293 net134
*294 net135
*295 net136
*296 net137
*297 net138
*298 net139
*299 net14
*300 net140
*301 net141
*302 net142
*303 net143
*304 net144
*305 net145
*306 net146
*307 net147
*308 net148
*309 net149
*310 net15
*311 net150
*312 net151
*313 net152
*314 net153
*315 net154
*316 net155
*317 net16
*318 net17
*319 net18
*320 net19
*321 net2
*322 net20
*323 net21
*324 net22
*325 net23
*326 net24
*327 net25
*328 net26
*329 net27
*330 net28
*331 net29
*332 net3
*333 net30
*334 net31
*335 net32
*336 net33
*337 net34
*338 net35
*339 net36
*340 net37
*341 net38
*342 net39
*343 net4
*344 net40
*345 net41
*346 net42
*347 net43
*348 net44
*349 net45
*350 net46
*351 net47
*352 net48
*353 net49
*354 net5
*355 net50
*356 net51
*357 net52
*358 net53
*359 net54
*360 net55
*361 net56
*362 net57
*363 net58
*364 net59
*365 net6
*366 net60
*367 net61
*368 net62
*369 net63
*370 net64
*371 net65
*372 net66
*373 net67
*374 net68
*375 net69
*376 net7
*377 net70
*378 net71
*379 net72
*380 net73
*381 net74
*382 net75
*383 net76
*384 net77
*385 net78
*386 net79
*387 net8
*388 net80
*389 net81
*390 net82
*391 net83
*392 net84
*393 net85
*394 net86
*395 net87
*396 net88
*397 net89
*398 net9
*399 net90
*400 net91
*401 net92
*402 net93
*403 net94
*404 net95
*405 net96
*406 net97
*407 net98
*408 net99
*409 ANTENNA_1
*410 ANTENNA_10
*411 ANTENNA_11
*412 ANTENNA_12
*413 ANTENNA_13
*414 ANTENNA_14
*415 ANTENNA_15
*416 ANTENNA_16
*417 ANTENNA_2
*418 ANTENNA_3
*419 ANTENNA_4
*420 ANTENNA_5
*421 ANTENNA_6
*422 ANTENNA_7
*423 ANTENNA_8
*424 ANTENNA_9
*425 FILLER_0_102
*426 FILLER_0_11
*427 FILLER_0_110
*428 FILLER_0_113
*429 FILLER_0_125
*430 FILLER_0_137
*431 FILLER_0_141
*432 FILLER_0_153
*433 FILLER_0_165
*434 FILLER_0_169
*435 FILLER_0_181
*436 FILLER_0_193
*437 FILLER_0_197
*438 FILLER_0_209
*439 FILLER_0_221
*440 FILLER_0_225
*441 FILLER_0_23
*442 FILLER_0_237
*443 FILLER_0_249
*444 FILLER_0_253
*445 FILLER_0_265
*446 FILLER_0_277
*447 FILLER_0_281
*448 FILLER_0_29
*449 FILLER_0_293
*450 FILLER_0_3
*451 FILLER_0_305
*452 FILLER_0_309
*453 FILLER_0_321
*454 FILLER_0_333
*455 FILLER_0_337
*456 FILLER_0_349
*457 FILLER_0_361
*458 FILLER_0_365
*459 FILLER_0_377
*460 FILLER_0_389
*461 FILLER_0_393
*462 FILLER_0_45
*463 FILLER_0_53
*464 FILLER_0_57
*465 FILLER_0_62
*466 FILLER_0_74
*467 FILLER_0_82
*468 FILLER_0_85
*469 FILLER_0_91
*470 FILLER_10_106
*471 FILLER_10_110
*472 FILLER_10_115
*473 FILLER_10_121
*474 FILLER_10_125
*475 FILLER_10_130
*476 FILLER_10_134
*477 FILLER_10_139
*478 FILLER_10_141
*479 FILLER_10_148
*480 FILLER_10_15
*481 FILLER_10_154
*482 FILLER_10_166
*483 FILLER_10_178
*484 FILLER_10_189
*485 FILLER_10_195
*486 FILLER_10_197
*487 FILLER_10_209
*488 FILLER_10_221
*489 FILLER_10_23
*490 FILLER_10_233
*491 FILLER_10_245
*492 FILLER_10_251
*493 FILLER_10_253
*494 FILLER_10_265
*495 FILLER_10_277
*496 FILLER_10_289
*497 FILLER_10_29
*498 FILLER_10_297
*499 FILLER_10_306
*500 FILLER_10_312
*501 FILLER_10_324
*502 FILLER_10_336
*503 FILLER_10_348
*504 FILLER_10_360
*505 FILLER_10_369
*506 FILLER_10_37
*507 FILLER_10_379
*508 FILLER_10_385
*509 FILLER_10_391
*510 FILLER_10_403
*511 FILLER_10_41
*512 FILLER_10_46
*513 FILLER_10_58
*514 FILLER_10_64
*515 FILLER_10_70
*516 FILLER_10_82
*517 FILLER_10_89
*518 FILLER_10_94
*519 FILLER_11_113
*520 FILLER_11_141
*521 FILLER_11_169
*522 FILLER_11_175
*523 FILLER_11_18
*524 FILLER_11_185
*525 FILLER_11_197
*526 FILLER_11_207
*527 FILLER_11_222
*528 FILLER_11_271
*529 FILLER_11_279
*530 FILLER_11_281
*531 FILLER_11_289
*532 FILLER_11_29
*533 FILLER_11_307
*534 FILLER_11_322
*535 FILLER_11_334
*536 FILLER_11_337
*537 FILLER_11_362
*538 FILLER_11_389
*539 FILLER_11_409
*540 FILLER_11_57
*541 FILLER_11_85
*542 FILLER_1_105
*543 FILLER_1_111
*544 FILLER_1_113
*545 FILLER_1_125
*546 FILLER_1_137
*547 FILLER_1_149
*548 FILLER_1_15
*549 FILLER_1_161
*550 FILLER_1_167
*551 FILLER_1_169
*552 FILLER_1_181
*553 FILLER_1_193
*554 FILLER_1_205
*555 FILLER_1_217
*556 FILLER_1_225
*557 FILLER_1_231
*558 FILLER_1_237
*559 FILLER_1_249
*560 FILLER_1_261
*561 FILLER_1_27
*562 FILLER_1_273
*563 FILLER_1_279
*564 FILLER_1_281
*565 FILLER_1_293
*566 FILLER_1_3
*567 FILLER_1_305
*568 FILLER_1_317
*569 FILLER_1_329
*570 FILLER_1_335
*571 FILLER_1_337
*572 FILLER_1_349
*573 FILLER_1_361
*574 FILLER_1_373
*575 FILLER_1_385
*576 FILLER_1_39
*577 FILLER_1_391
*578 FILLER_1_393
*579 FILLER_1_405
*580 FILLER_1_51
*581 FILLER_1_55
*582 FILLER_1_57
*583 FILLER_1_69
*584 FILLER_1_81
*585 FILLER_1_93
*586 FILLER_2_102
*587 FILLER_2_125
*588 FILLER_2_137
*589 FILLER_2_144
*590 FILLER_2_15
*591 FILLER_2_152
*592 FILLER_2_158
*593 FILLER_2_182
*594 FILLER_2_194
*595 FILLER_2_197
*596 FILLER_2_204
*597 FILLER_2_212
*598 FILLER_2_253
*599 FILLER_2_265
*600 FILLER_2_27
*601 FILLER_2_271
*602 FILLER_2_276
*603 FILLER_2_288
*604 FILLER_2_29
*605 FILLER_2_3
*606 FILLER_2_300
*607 FILLER_2_309
*608 FILLER_2_317
*609 FILLER_2_322
*610 FILLER_2_326
*611 FILLER_2_330
*612 FILLER_2_342
*613 FILLER_2_354
*614 FILLER_2_362
*615 FILLER_2_365
*616 FILLER_2_371
*617 FILLER_2_377
*618 FILLER_2_389
*619 FILLER_2_41
*620 FILLER_2_413
*621 FILLER_2_53
*622 FILLER_2_65
*623 FILLER_2_77
*624 FILLER_2_83
*625 FILLER_2_85
*626 FILLER_2_90
*627 FILLER_3_100
*628 FILLER_3_11
*629 FILLER_3_113
*630 FILLER_3_125
*631 FILLER_3_137
*632 FILLER_3_158
*633 FILLER_3_166
*634 FILLER_3_169
*635 FILLER_3_181
*636 FILLER_3_190
*637 FILLER_3_202
*638 FILLER_3_211
*639 FILLER_3_223
*640 FILLER_3_225
*641 FILLER_3_237
*642 FILLER_3_245
*643 FILLER_3_255
*644 FILLER_3_267
*645 FILLER_3_279
*646 FILLER_3_281
*647 FILLER_3_293
*648 FILLER_3_3
*649 FILLER_3_30
*650 FILLER_3_305
*651 FILLER_3_317
*652 FILLER_3_325
*653 FILLER_3_333
*654 FILLER_3_337
*655 FILLER_3_349
*656 FILLER_3_361
*657 FILLER_3_373
*658 FILLER_3_385
*659 FILLER_3_391
*660 FILLER_3_393
*661 FILLER_3_405
*662 FILLER_3_409
*663 FILLER_3_42
*664 FILLER_3_54
*665 FILLER_3_87
*666 FILLER_4_113
*667 FILLER_4_122
*668 FILLER_4_130
*669 FILLER_4_138
*670 FILLER_4_144
*671 FILLER_4_15
*672 FILLER_4_156
*673 FILLER_4_172
*674 FILLER_4_184
*675 FILLER_4_197
*676 FILLER_4_209
*677 FILLER_4_221
*678 FILLER_4_227
*679 FILLER_4_23
*680 FILLER_4_239
*681 FILLER_4_251
*682 FILLER_4_253
*683 FILLER_4_265
*684 FILLER_4_277
*685 FILLER_4_289
*686 FILLER_4_29
*687 FILLER_4_3
*688 FILLER_4_301
*689 FILLER_4_307
*690 FILLER_4_309
*691 FILLER_4_321
*692 FILLER_4_325
*693 FILLER_4_328
*694 FILLER_4_337
*695 FILLER_4_349
*696 FILLER_4_361
*697 FILLER_4_365
*698 FILLER_4_377
*699 FILLER_4_389
*700 FILLER_4_397
*701 FILLER_4_403
*702 FILLER_4_409
*703 FILLER_4_41
*704 FILLER_4_53
*705 FILLER_4_65
*706 FILLER_4_77
*707 FILLER_4_83
*708 FILLER_4_85
*709 FILLER_4_97
*710 FILLER_5_105
*711 FILLER_5_111
*712 FILLER_5_113
*713 FILLER_5_125
*714 FILLER_5_137
*715 FILLER_5_143
*716 FILLER_5_15
*717 FILLER_5_151
*718 FILLER_5_157
*719 FILLER_5_165
*720 FILLER_5_169
*721 FILLER_5_174
*722 FILLER_5_181
*723 FILLER_5_193
*724 FILLER_5_199
*725 FILLER_5_212
*726 FILLER_5_225
*727 FILLER_5_237
*728 FILLER_5_249
*729 FILLER_5_261
*730 FILLER_5_27
*731 FILLER_5_273
*732 FILLER_5_281
*733 FILLER_5_293
*734 FILLER_5_3
*735 FILLER_5_305
*736 FILLER_5_317
*737 FILLER_5_329
*738 FILLER_5_333
*739 FILLER_5_340
*740 FILLER_5_352
*741 FILLER_5_364
*742 FILLER_5_376
*743 FILLER_5_388
*744 FILLER_5_39
*745 FILLER_5_393
*746 FILLER_5_398
*747 FILLER_5_403
*748 FILLER_5_409
*749 FILLER_5_51
*750 FILLER_5_55
*751 FILLER_5_57
*752 FILLER_5_69
*753 FILLER_5_81
*754 FILLER_5_93
*755 FILLER_6_101
*756 FILLER_6_113
*757 FILLER_6_125
*758 FILLER_6_134
*759 FILLER_6_139
*760 FILLER_6_141
*761 FILLER_6_15
*762 FILLER_6_150
*763 FILLER_6_158
*764 FILLER_6_164
*765 FILLER_6_170
*766 FILLER_6_177
*767 FILLER_6_192
*768 FILLER_6_197
*769 FILLER_6_212
*770 FILLER_6_216
*771 FILLER_6_222
*772 FILLER_6_23
*773 FILLER_6_234
*774 FILLER_6_246
*775 FILLER_6_259
*776 FILLER_6_27
*777 FILLER_6_271
*778 FILLER_6_283
*779 FILLER_6_295
*780 FILLER_6_3
*781 FILLER_6_307
*782 FILLER_6_309
*783 FILLER_6_32
*784 FILLER_6_321
*785 FILLER_6_333
*786 FILLER_6_339
*787 FILLER_6_351
*788 FILLER_6_363
*789 FILLER_6_365
*790 FILLER_6_377
*791 FILLER_6_381
*792 FILLER_6_390
*793 FILLER_6_403
*794 FILLER_6_409
*795 FILLER_6_44
*796 FILLER_6_56
*797 FILLER_6_62
*798 FILLER_6_68
*799 FILLER_6_72
*800 FILLER_6_88
*801 FILLER_6_92
*802 FILLER_7_100
*803 FILLER_7_113
*804 FILLER_7_117
*805 FILLER_7_125
*806 FILLER_7_130
*807 FILLER_7_142
*808 FILLER_7_15
*809 FILLER_7_153
*810 FILLER_7_164
*811 FILLER_7_184
*812 FILLER_7_223
*813 FILLER_7_233
*814 FILLER_7_240
*815 FILLER_7_252
*816 FILLER_7_264
*817 FILLER_7_27
*818 FILLER_7_276
*819 FILLER_7_281
*820 FILLER_7_293
*821 FILLER_7_3
*822 FILLER_7_305
*823 FILLER_7_317
*824 FILLER_7_329
*825 FILLER_7_335
*826 FILLER_7_337
*827 FILLER_7_349
*828 FILLER_7_361
*829 FILLER_7_367
*830 FILLER_7_371
*831 FILLER_7_383
*832 FILLER_7_39
*833 FILLER_7_391
*834 FILLER_7_393
*835 FILLER_7_397
*836 FILLER_7_403
*837 FILLER_7_409
*838 FILLER_7_51
*839 FILLER_7_55
*840 FILLER_7_57
*841 FILLER_7_65
*842 FILLER_7_71
*843 FILLER_7_83
*844 FILLER_7_91
*845 FILLER_8_110
*846 FILLER_8_119
*847 FILLER_8_131
*848 FILLER_8_15
*849 FILLER_8_153
*850 FILLER_8_180
*851 FILLER_8_192
*852 FILLER_8_197
*853 FILLER_8_22
*854 FILLER_8_244
*855 FILLER_8_253
*856 FILLER_8_259
*857 FILLER_8_264
*858 FILLER_8_276
*859 FILLER_8_282
*860 FILLER_8_3
*861 FILLER_8_307
*862 FILLER_8_315
*863 FILLER_8_32
*864 FILLER_8_327
*865 FILLER_8_339
*866 FILLER_8_346
*867 FILLER_8_358
*868 FILLER_8_365
*869 FILLER_8_377
*870 FILLER_8_389
*871 FILLER_8_397
*872 FILLER_8_403
*873 FILLER_8_44
*874 FILLER_8_56
*875 FILLER_8_68
*876 FILLER_8_80
*877 FILLER_8_85
*878 FILLER_8_98
*879 FILLER_9_105
*880 FILLER_9_111
*881 FILLER_9_113
*882 FILLER_9_12
*883 FILLER_9_125
*884 FILLER_9_145
*885 FILLER_9_157
*886 FILLER_9_165
*887 FILLER_9_169
*888 FILLER_9_181
*889 FILLER_9_193
*890 FILLER_9_199
*891 FILLER_9_223
*892 FILLER_9_239
*893 FILLER_9_251
*894 FILLER_9_26
*895 FILLER_9_263
*896 FILLER_9_275
*897 FILLER_9_279
*898 FILLER_9_281
*899 FILLER_9_293
*900 FILLER_9_305
*901 FILLER_9_317
*902 FILLER_9_334
*903 FILLER_9_346
*904 FILLER_9_355
*905 FILLER_9_359
*906 FILLER_9_363
*907 FILLER_9_375
*908 FILLER_9_387
*909 FILLER_9_391
*910 FILLER_9_40
*911 FILLER_9_52
*912 FILLER_9_57
*913 FILLER_9_69
*914 FILLER_9_81
*915 FILLER_9_93
*916 PHY_EDGE_ROW_0_Left_12
*917 PHY_EDGE_ROW_0_Right_0
*918 PHY_EDGE_ROW_10_Left_22
*919 PHY_EDGE_ROW_10_Right_10
*920 PHY_EDGE_ROW_11_Left_23
*921 PHY_EDGE_ROW_11_Right_11
*922 PHY_EDGE_ROW_1_Left_13
*923 PHY_EDGE_ROW_1_Right_1
*924 PHY_EDGE_ROW_2_Left_14
*925 PHY_EDGE_ROW_2_Right_2
*926 PHY_EDGE_ROW_3_Left_15
*927 PHY_EDGE_ROW_3_Right_3
*928 PHY_EDGE_ROW_4_Left_16
*929 PHY_EDGE_ROW_4_Right_4
*930 PHY_EDGE_ROW_5_Left_17
*931 PHY_EDGE_ROW_5_Right_5
*932 PHY_EDGE_ROW_6_Left_18
*933 PHY_EDGE_ROW_6_Right_6
*934 PHY_EDGE_ROW_7_Left_19
*935 PHY_EDGE_ROW_7_Right_7
*936 PHY_EDGE_ROW_8_Left_20
*937 PHY_EDGE_ROW_8_Right_8
*938 PHY_EDGE_ROW_9_Left_21
*939 PHY_EDGE_ROW_9_Right_9
*940 S_CPU_IRQ_155
*941 TAP_TAPCELL_ROW_0_24
*942 TAP_TAPCELL_ROW_0_25
*943 TAP_TAPCELL_ROW_0_26
*944 TAP_TAPCELL_ROW_0_27
*945 TAP_TAPCELL_ROW_0_28
*946 TAP_TAPCELL_ROW_0_29
*947 TAP_TAPCELL_ROW_0_30
*948 TAP_TAPCELL_ROW_0_31
*949 TAP_TAPCELL_ROW_0_32
*950 TAP_TAPCELL_ROW_0_33
*951 TAP_TAPCELL_ROW_0_34
*952 TAP_TAPCELL_ROW_0_35
*953 TAP_TAPCELL_ROW_0_36
*954 TAP_TAPCELL_ROW_0_37
*955 TAP_TAPCELL_ROW_10_101
*956 TAP_TAPCELL_ROW_10_102
*957 TAP_TAPCELL_ROW_10_103
*958 TAP_TAPCELL_ROW_10_104
*959 TAP_TAPCELL_ROW_10_105
*960 TAP_TAPCELL_ROW_10_106
*961 TAP_TAPCELL_ROW_10_107
*962 TAP_TAPCELL_ROW_11_108
*963 TAP_TAPCELL_ROW_11_109
*964 TAP_TAPCELL_ROW_11_110
*965 TAP_TAPCELL_ROW_11_111
*966 TAP_TAPCELL_ROW_11_112
*967 TAP_TAPCELL_ROW_11_113
*968 TAP_TAPCELL_ROW_11_114
*969 TAP_TAPCELL_ROW_11_115
*970 TAP_TAPCELL_ROW_11_116
*971 TAP_TAPCELL_ROW_11_117
*972 TAP_TAPCELL_ROW_11_118
*973 TAP_TAPCELL_ROW_11_119
*974 TAP_TAPCELL_ROW_11_120
*975 TAP_TAPCELL_ROW_11_121
*976 TAP_TAPCELL_ROW_1_38
*977 TAP_TAPCELL_ROW_1_39
*978 TAP_TAPCELL_ROW_1_40
*979 TAP_TAPCELL_ROW_1_41
*980 TAP_TAPCELL_ROW_1_42
*981 TAP_TAPCELL_ROW_1_43
*982 TAP_TAPCELL_ROW_1_44
*983 TAP_TAPCELL_ROW_2_45
*984 TAP_TAPCELL_ROW_2_46
*985 TAP_TAPCELL_ROW_2_47
*986 TAP_TAPCELL_ROW_2_48
*987 TAP_TAPCELL_ROW_2_49
*988 TAP_TAPCELL_ROW_2_50
*989 TAP_TAPCELL_ROW_2_51
*990 TAP_TAPCELL_ROW_3_52
*991 TAP_TAPCELL_ROW_3_53
*992 TAP_TAPCELL_ROW_3_54
*993 TAP_TAPCELL_ROW_3_55
*994 TAP_TAPCELL_ROW_3_56
*995 TAP_TAPCELL_ROW_3_57
*996 TAP_TAPCELL_ROW_3_58
*997 TAP_TAPCELL_ROW_4_59
*998 TAP_TAPCELL_ROW_4_60
*999 TAP_TAPCELL_ROW_4_61
*1000 TAP_TAPCELL_ROW_4_62
*1001 TAP_TAPCELL_ROW_4_63
*1002 TAP_TAPCELL_ROW_4_64
*1003 TAP_TAPCELL_ROW_4_65
*1004 TAP_TAPCELL_ROW_5_66
*1005 TAP_TAPCELL_ROW_5_67
*1006 TAP_TAPCELL_ROW_5_68
*1007 TAP_TAPCELL_ROW_5_69
*1008 TAP_TAPCELL_ROW_5_70
*1009 TAP_TAPCELL_ROW_5_71
*1010 TAP_TAPCELL_ROW_5_72
*1011 TAP_TAPCELL_ROW_6_73
*1012 TAP_TAPCELL_ROW_6_74
*1013 TAP_TAPCELL_ROW_6_75
*1014 TAP_TAPCELL_ROW_6_76
*1015 TAP_TAPCELL_ROW_6_77
*1016 TAP_TAPCELL_ROW_6_78
*1017 TAP_TAPCELL_ROW_6_79
*1018 TAP_TAPCELL_ROW_7_80
*1019 TAP_TAPCELL_ROW_7_81
*1020 TAP_TAPCELL_ROW_7_82
*1021 TAP_TAPCELL_ROW_7_83
*1022 TAP_TAPCELL_ROW_7_84
*1023 TAP_TAPCELL_ROW_7_85
*1024 TAP_TAPCELL_ROW_7_86
*1025 TAP_TAPCELL_ROW_8_87
*1026 TAP_TAPCELL_ROW_8_88
*1027 TAP_TAPCELL_ROW_8_89
*1028 TAP_TAPCELL_ROW_8_90
*1029 TAP_TAPCELL_ROW_8_91
*1030 TAP_TAPCELL_ROW_8_92
*1031 TAP_TAPCELL_ROW_8_93
*1032 TAP_TAPCELL_ROW_9_100
*1033 TAP_TAPCELL_ROW_9_94
*1034 TAP_TAPCELL_ROW_9_95
*1035 TAP_TAPCELL_ROW_9_96
*1036 TAP_TAPCELL_ROW_9_97
*1037 TAP_TAPCELL_ROW_9_98
*1038 TAP_TAPCELL_ROW_9_99
*1039 _024_
*1040 _025_
*1041 _026_
*1042 _027_
*1043 _028_
*1044 _029_
*1045 _030_
*1046 _031_
*1047 _032_
*1048 _033_
*1049 _034_
*1050 _035_
*1051 _036_
*1052 _037_
*1053 _038_
*1054 _039_
*1055 _040_
*1056 _041_
*1057 _042_
*1058 _043_
*1059 _044_
*1060 _045_
*1061 _046_
*1062 _047_
*1063 _048_
*1064 _049_
*1065 _050_
*1066 _051_
*1067 _052_
*1068 _053_
*1069 _054_
*1070 _055_
*1071 _056_
*1072 _057_
*1073 _058_
*1074 _059_
*1075 _060_
*1076 _061_
*1077 _062_
*1078 _063_
*1079 _065_
*1080 _066_
*1081 _067_
*1082 _068_
*1083 _069_
*1084 _070_
*1085 _071_
*1086 _072_
*1087 _073_
*1088 _074_
*1089 _075_
*1090 _076_
*1091 _077_
*1092 _078_
*1093 _079_
*1094 _080_
*1095 _081_
*1096 _082_
*1097 _083_
*1098 _084_
*1099 _085_
*1100 _086_
*1101 _087_
*1102 _088_
*1103 _089_
*1104 _090_
*1105 _091_
*1106 _092_
*1107 _093_
*1108 _094_
*1109 _095_
*1110 _096_
*1111 _097_
*1112 _098_
*1113 _099_
*1114 _100_
*1115 _101_
*1116 _102_
*1117 _103_
*1118 _104_
*1119 _105_
*1120 _106_
*1121 _107_
*1122 _108_
*1123 _109_
*1124 _110_
*1125 _111_
*1126 _112_
*1127 _113_
*1128 _114_
*1129 _115_
*1130 _116_
*1131 _117_
*1132 _118_
*1133 _119_
*1134 _120_
*1135 _121_
*1136 _122_
*1137 _123_
*1138 _124_
*1139 _125_
*1140 _126_
*1141 _127_
*1142 _128_
*1143 _129_
*1144 _130_
*1145 _131_
*1146 _132_
*1147 _133_
*1148 _134_
*1149 _135_
*1150 _136_
*1151 _137_
*1152 _138_
*1153 _139_
*1154 _140_
*1155 _141_
*1156 _142_
*1157 _143_
*1158 _144_
*1159 _145_
*1160 _146_
*1161 _147_
*1162 _148_
*1163 _149_
*1164 _150_
*1165 _151_
*1166 _152_
*1167 _153_
*1168 _154_
*1169 _155_
*1170 _156_
*1171 _157_
*1172 _158_
*1173 _159_
*1174 _160_
*1175 _161_
*1176 _162_
*1177 _163_
*1178 _164_
*1179 _165_
*1180 _166_
*1181 _167_
*1182 _168_
*1183 _169_
*1184 fanout3
*1185 input1
*1186 input10
*1187 input11
*1188 input12
*1189 input13
*1190 input14
*1191 input15
*1192 input16
*1193 input17
*1194 input18
*1195 input19
*1196 input2
*1197 input20
*1198 input21
*1199 input22
*1200 input23
*1201 input24
*1202 input25
*1203 input26
*1204 input27
*1205 input28
*1206 input29
*1207 input3
*1208 input30
*1209 input31
*1210 input32
*1211 input33
*1212 input34
*1213 input35
*1214 input36
*1215 input37
*1216 input38
*1217 input39
*1218 input4
*1219 input40
*1220 input41
*1221 input42
*1222 input43
*1223 input44
*1224 input45
*1225 input5
*1226 input6
*1227 input7
*1228 input8
*1229 input9
*1230 output100
*1231 output101
*1232 output102
*1233 output103
*1234 output104
*1235 output105
*1236 output106
*1237 output107
*1238 output108
*1239 output109
*1240 output110
*1241 output111
*1242 output112
*1243 output113
*1244 output114
*1245 output115
*1246 output116
*1247 output117
*1248 output118
*1249 output119
*1250 output120
*1251 output121
*1252 output122
*1253 output123
*1254 output124
*1255 output125
*1256 output126
*1257 output127
*1258 output128
*1259 output129
*1260 output130
*1261 output131
*1262 output132
*1263 output133
*1264 output134
*1265 output135
*1266 output136
*1267 output137
*1268 output138
*1269 output139
*1270 output140
*1271 output141
*1272 output142
*1273 output143
*1274 output144
*1275 output145
*1276 output146
*1277 output147
*1278 output148
*1279 output149
*1280 output150
*1281 output151
*1282 output152
*1283 output153
*1284 output154
*1285 output46
*1286 output47
*1287 output48
*1288 output49
*1289 output50
*1290 output51
*1291 output52
*1292 output53
*1293 output54
*1294 output55
*1295 output56
*1296 output57
*1297 output58
*1298 output59
*1299 output60
*1300 output61
*1301 output62
*1302 output63
*1303 output64
*1304 output65
*1305 output66
*1306 output67
*1307 output68
*1308 output69
*1309 output70
*1310 output71
*1311 output72
*1312 output73
*1313 output74
*1314 output75
*1315 output76
*1316 output77
*1317 output78
*1318 output79
*1319 output80
*1320 output81
*1321 output82
*1322 output83
*1323 output84
*1324 output85
*1325 output86
*1326 output87
*1327 output88
*1328 output89
*1329 output90
*1330 output91
*1331 output92
*1332 output93
*1333 output94
*1334 output95
*1335 output96
*1336 output97
*1337 output98
*1338 output99

*PORTS
Co O
FrameData[0] I
FrameData[10] I
FrameData[11] I
FrameData[12] I
FrameData[13] I
FrameData[14] I
FrameData[15] I
FrameData[16] I
FrameData[17] I
FrameData[18] I
FrameData[19] I
FrameData[1] I
FrameData[20] I
FrameData[21] I
FrameData[22] I
FrameData[23] I
FrameData[24] I
FrameData[25] I
FrameData[26] I
FrameData[27] I
FrameData[28] I
FrameData[29] I
FrameData[2] I
FrameData[30] I
FrameData[31] I
FrameData[3] I
FrameData[4] I
FrameData[5] I
FrameData[6] I
FrameData[7] I
FrameData[8] I
FrameData[9] I
FrameData_O[0] O
FrameData_O[10] O
FrameData_O[11] O
FrameData_O[12] O
FrameData_O[13] O
FrameData_O[14] O
FrameData_O[15] O
FrameData_O[16] O
FrameData_O[17] O
FrameData_O[18] O
FrameData_O[19] O
FrameData_O[1] O
FrameData_O[20] O
FrameData_O[21] O
FrameData_O[22] O
FrameData_O[23] O
FrameData_O[24] O
FrameData_O[25] O
FrameData_O[26] O
FrameData_O[27] O
FrameData_O[28] O
FrameData_O[29] O
FrameData_O[2] O
FrameData_O[30] O
FrameData_O[31] O
FrameData_O[3] O
FrameData_O[4] O
FrameData_O[5] O
FrameData_O[6] O
FrameData_O[7] O
FrameData_O[8] O
FrameData_O[9] O
FrameStrobe[0] I
FrameStrobe[10] I
FrameStrobe[11] I
FrameStrobe[12] I
FrameStrobe[13] I
FrameStrobe[14] I
FrameStrobe[15] I
FrameStrobe[16] I
FrameStrobe[17] I
FrameStrobe[18] I
FrameStrobe[19] I
FrameStrobe[1] I
FrameStrobe[2] I
FrameStrobe[3] I
FrameStrobe[4] I
FrameStrobe[5] I
FrameStrobe[6] I
FrameStrobe[7] I
FrameStrobe[8] I
FrameStrobe[9] I
FrameStrobe_O[0] O
FrameStrobe_O[10] O
FrameStrobe_O[11] O
FrameStrobe_O[12] O
FrameStrobe_O[13] O
FrameStrobe_O[14] O
FrameStrobe_O[15] O
FrameStrobe_O[16] O
FrameStrobe_O[17] O
FrameStrobe_O[18] O
FrameStrobe_O[19] O
FrameStrobe_O[1] O
FrameStrobe_O[2] O
FrameStrobe_O[3] O
FrameStrobe_O[4] O
FrameStrobe_O[5] O
FrameStrobe_O[6] O
FrameStrobe_O[7] O
FrameStrobe_O[8] O
FrameStrobe_O[9] O
IRQ_top0 O
IRQ_top1 O
IRQ_top2 O
IRQ_top3 O
N1BEG[0] O
N1BEG[1] O
N1BEG[2] O
N1BEG[3] O
N2BEG[0] O
N2BEG[1] O
N2BEG[2] O
N2BEG[3] O
N2BEG[4] O
N2BEG[5] O
N2BEG[6] O
N2BEG[7] O
N2BEGb[0] O
N2BEGb[1] O
N2BEGb[2] O
N2BEGb[3] O
N2BEGb[4] O
N2BEGb[5] O
N2BEGb[6] O
N2BEGb[7] O
N4BEG[0] O
N4BEG[10] O
N4BEG[11] O
N4BEG[12] O
N4BEG[13] O
N4BEG[14] O
N4BEG[15] O
N4BEG[1] O
N4BEG[2] O
N4BEG[3] O
N4BEG[4] O
N4BEG[5] O
N4BEG[6] O
N4BEG[7] O
N4BEG[8] O
N4BEG[9] O
NN4BEG[0] O
NN4BEG[10] O
NN4BEG[11] O
NN4BEG[12] O
NN4BEG[13] O
NN4BEG[14] O
NN4BEG[15] O
NN4BEG[1] O
NN4BEG[2] O
NN4BEG[3] O
NN4BEG[4] O
NN4BEG[5] O
NN4BEG[6] O
NN4BEG[7] O
NN4BEG[8] O
NN4BEG[9] O
S1END[0] I
S1END[1] I
S1END[2] I
S1END[3] I
S2END[0] I
S2END[1] I
S2END[2] I
S2END[3] I
S2END[4] I
S2END[5] I
S2END[6] I
S2END[7] I
S2MID[0] I
S2MID[1] I
S2MID[2] I
S2MID[3] I
S2MID[4] I
S2MID[5] I
S2MID[6] I
S2MID[7] I
S4END[0] I
S4END[10] I
S4END[11] I
S4END[12] I
S4END[13] I
S4END[14] I
S4END[15] I
S4END[1] I
S4END[2] I
S4END[3] I
S4END[4] I
S4END[5] I
S4END[6] I
S4END[7] I
S4END[8] I
S4END[9] I
SS4END[0] I
SS4END[10] I
SS4END[11] I
SS4END[12] I
SS4END[13] I
SS4END[14] I
SS4END[15] I
SS4END[1] I
SS4END[2] I
SS4END[3] I
SS4END[4] I
SS4END[5] I
SS4END[6] I
SS4END[7] I
SS4END[8] I
SS4END[9] I
UserCLK I
UserCLKo O

*D_NET *1 0.0027155
*CONN
*P Co O
*I *940:LO O *D sky130_fd_sc_hd__conb_1
*CAP
1 Co 0.000767289
2 *940:LO 4.88336e-05
3 *1:8 0.000816123
4 Co NN4BEG[15] 0.000198685
5 Co *162:9 0.000280191
6 Co *273:18 0.000447348
7 Co *318:16 0.000127659
8 *1:8 *326:12 2.93747e-05
*RES
1 *940:LO *1:8 38.6214 
2 *1:8 Co 16.4471 
*END

*D_NET *2 0.027256
*CONN
*P FrameData[0] I
*I *1079:A I *D sky130_fd_sc_hd__clkbuf_1
*I *409:DIODE I *D sky130_fd_sc_hd__diode_2
*CAP
1 FrameData[0] 0.00779646
2 *1079:A 7.34291e-06
3 *409:DIODE 0.000389563
4 *2:7 0.00817868
5 *409:DIODE *34:8 0
6 *409:DIODE *45:10 0
7 *409:DIODE *56:10 0.00012706
8 *409:DIODE *75:9 0.000759464
9 *409:DIODE *351:10 0
10 *409:DIODE *375:10 0
11 *1079:A *24:13 5.73309e-05
12 *1079:A *27:23 5.73309e-05
13 *2:7 FrameData_O[4] 0
14 *2:7 *13:17 0.000340805
15 *2:7 *24:9 0.000203941
16 *2:7 *27:15 0.00933802
17 *2:7 *80:11 0
*RES
1 FrameData[0] *2:7 43.2203 
2 *2:7 *409:DIODE 48.1811 
3 *409:DIODE *1079:A 46.6214 
*END

*D_NET *3 0.00261178
*CONN
*P FrameData[10] I
*I *1089:A I *D sky130_fd_sc_hd__clkbuf_2
*CAP
1 FrameData[10] 0.0010642
2 *1089:A 0
3 *3:13 0.0010642
4 *3:13 *4:13 0.000182199
5 *3:13 *5:11 0
6 *3:13 *6:17 0.000115593
7 *3:13 *13:17 0
8 *3:13 *33:17 0.000185587
*RES
1 FrameData[10] *3:13 41.2749 
2 *3:13 *1089:A 23 
*END

*D_NET *4 0.00319875
*CONN
*P FrameData[11] I
*I *1090:A I *D sky130_fd_sc_hd__clkbuf_2
*CAP
1 FrameData[11] 0.00100121
2 *1090:A 0
3 *4:13 0.00100121
4 *4:13 *5:11 0.000352822
5 *4:13 *6:17 0.000293111
6 *4:13 *7:25 0
7 *4:13 *32:13 4.75766e-05
8 *4:13 *33:17 0.000320611
9 *4:13 *356:12 0
10 *3:13 *4:13 0.000182199
*RES
1 FrameData[11] *4:13 32.6057 
2 *4:13 *1090:A 23 
*END

*D_NET *5 0.042849
*CONN
*P FrameData[12] I
*I *1091:A I *D sky130_fd_sc_hd__clkbuf_1
*I *417:DIODE I *D sky130_fd_sc_hd__diode_2
*CAP
1 FrameData[12] 0.000936769
2 *1091:A 4.23312e-05
3 *417:DIODE 4.23312e-05
4 *5:41 0.000267797
5 *5:33 0.00175361
6 *5:31 0.00175738
7 *5:25 0.00156029
8 *5:19 0.00765605
9 *5:11 0.00730409
10 *5:11 *6:17 0.000362582
11 *5:11 *8:19 0.000745516
12 *5:11 *376:8 0
13 *5:19 *8:19 0.000203318
14 *5:19 *8:23 0
15 *5:19 *255:6 0.000101624
16 *5:19 *262:50 5.87229e-05
17 *5:19 *276:22 0.00155057
18 *5:19 *281:24 0.00264577
19 *5:19 *304:18 0.000801865
20 *5:19 *309:18 0.00299089
21 *5:19 *310:16 4.51797e-05
22 *5:19 *343:22 0.000120171
23 *5:19 *361:22 0
24 *5:25 *7:35 0.00098553
25 *5:25 *207:9 0.000136743
26 *5:25 *208:11 5.50049e-05
27 *5:25 *310:31 2.18409e-05
28 *5:25 *312:12 0.0033045
29 *5:25 *326:12 0.00104313
30 *5:25 *336:16 0.000139764
31 *5:31 *289:14 0
32 *5:31 *290:12 0.000353903
33 *5:31 *290:20 1.24585e-05
34 *5:33 *1153:A 0.000143655
35 *5:33 *8:29 0.000265477
36 *5:33 *81:43 0.000415745
37 *5:33 *202:9 0.000111921
38 *5:33 *204:15 0.000188934
39 *5:33 *364:30 0.0033418
40 *5:33 *389:10 0.000517027
41 *5:41 *7:45 0.000116403
42 *5:41 *371:30 0
43 *5:41 *394:14 0
44 *5:41 *395:18 0.000395484
45 *3:13 *5:11 0
46 *4:13 *5:11 0.000352822
*RES
1 FrameData[12] *5:11 34.2649 
2 *5:11 *5:19 41.8471 
3 *5:19 *5:25 43.6657 
4 *5:25 *5:31 35.4271 
5 *5:31 *5:33 44.9293 
6 *5:33 *5:41 36.0486 
7 *5:41 *417:DIODE 23 
8 *417:DIODE *1091:A 46.6214 
*END

*D_NET *6 0.00399324
*CONN
*P FrameData[13] I
*I *1092:A I *D sky130_fd_sc_hd__clkbuf_2
*CAP
1 FrameData[13] 0.00101778
2 *1092:A 0
3 *6:17 0.00101778
4 *6:17 *7:25 0.00103325
5 *6:17 *11:11 0.000153144
6 *6:17 *356:12 0
7 *3:13 *6:17 0.000115593
8 *4:13 *6:17 0.000293111
9 *5:11 *6:17 0.000362582
*RES
1 FrameData[13] *6:17 34.8717 
2 *6:17 *1092:A 23 
*END

*D_NET *7 0.044993
*CONN
*P FrameData[14] I
*I *1093:A I *D sky130_fd_sc_hd__clkbuf_1
*I *418:DIODE I *D sky130_fd_sc_hd__diode_2
*CAP
1 FrameData[14] 0.00604316
2 *1093:A 3.07031e-05
3 *418:DIODE 0
4 *7:45 0.000421092
5 *7:39 0.00156218
6 *7:35 0.00448815
7 *7:31 0.00345663
8 *7:25 0.00618343
9 *1093:A *1293:A 8.40645e-05